Taipei AM .net.xml Orig:

<?xml version="1.0" encoding="UTF-8"?>

<!-- generated on 2023-07-05 17:25:18 by Eclipse SUMO netedit Version 1.15.0
<configuration xmlns:xsi="http://www.w3.org/2001/XMLSchema-instance" xsi:noNamespaceSchemaLocation="http://sumo.dlr.de/xsd/netconvertConfiguration.xsd">

    <input>
        <sumo-net-file value="D:\01 Work\D230199 運研所_車聯網號誌案\前期資料\SUMO_IOT_Taipei_testing\B1\sumo_Taipei_AM\Taipei_AM.net.xml"/>
    </input>

    <output>
        <output-file value="D:\01 Work\D230199 運研所_車聯網號誌案\前期資料\SUMO_IOT_Taipei_testing\B1\sumo_Taipei_AM\Taipei_AM.net.xml"/>
    </output>

    <processing>
        <geometry.min-radius.fix.railways value="false"/>
        <geometry.max-grade.fix value="false"/>
        <offset.disable-normalization value="true"/>
        <lefthand value="0"/>
    </processing>

    <junctions>
        <no-turnarounds value="true"/>
        <junctions.corner-detail value="5"/>
        <junctions.limit-turn-speed value="5.50"/>
        <rectangular-lane-cut value="0"/>
    </junctions>

    <pedestrian>
        <walkingareas value="0"/>
    </pedestrian>

</configuration>
-->

<net version="1.9" junctionCornerDetail="5" limitTurnSpeed="5.50" xmlns:xsi="http://www.w3.org/2001/XMLSchema-instance" xsi:noNamespaceSchemaLocation="http://sumo.dlr.de/xsd/net_file.xsd">

    <location netOffset="-348777.88,-2776949.15" convBoundary="2220.53,146.01,2834.45,1134.58" origBoundary="121.499938,25.066621,121.535084,25.131167" projParameter="+proj=utm +zone=51 +ellps=WGS84 +datum=WGS84 +units=m +no_defs"/>

    <type id="highway.bridleway" priority="1" numLanes="1" speed="2.78" allow="pedestrian" oneway="1" width="2.00"/>
    <type id="highway.bus_guideway" priority="1" numLanes="1" speed="27.78" allow="bus" oneway="1"/>
    <type id="highway.cycleway" priority="1" numLanes="1" speed="8.33" allow="bicycle" oneway="0" width="1.00"/>
    <type id="highway.footway" priority="1" numLanes="1" speed="2.78" allow="pedestrian" oneway="1" width="2.00"/>
    <type id="highway.ford" priority="1" numLanes="1" speed="2.78" allow="army" oneway="0"/>
    <type id="highway.living_street" priority="2" numLanes="1" speed="2.78" disallow="tram rail_urban rail rail_electric ship" oneway="0"/>
    <type id="highway.motorway" priority="14" numLanes="2" speed="39.44" allow="private emergency authority army vip passenger hov taxi bus coach delivery truck trailer motorcycle evehicle custom1 custom2" oneway="1"/>
    <type id="highway.motorway_link" priority="9" numLanes="1" speed="22.22" allow="private emergency authority army vip passenger hov taxi bus coach delivery truck trailer motorcycle evehicle custom1 custom2" oneway="1"/>
    <type id="highway.path" priority="1" numLanes="1" speed="2.78" allow="pedestrian bicycle" oneway="1" width="2.00"/>
    <type id="highway.pedestrian" priority="1" numLanes="1" speed="2.78" allow="pedestrian" oneway="1" width="2.00"/>
    <type id="highway.primary" priority="12" numLanes="2" speed="27.78" disallow="tram rail_urban rail rail_electric ship" oneway="0"/>
    <type id="highway.primary_link" priority="7" numLanes="1" speed="22.22" disallow="tram rail_urban rail rail_electric ship" oneway="0"/>
    <type id="highway.raceway" priority="15" numLanes="2" speed="83.33" allow="vip" oneway="0"/>
    <type id="highway.residential" priority="3" numLanes="1" speed="13.89" disallow="tram rail_urban rail rail_electric ship" oneway="0"/>
    <type id="highway.secondary" priority="11" numLanes="2" speed="27.78" disallow="tram rail_urban rail rail_electric ship" oneway="0"/>
    <type id="highway.secondary_link" priority="6" numLanes="1" speed="22.22" disallow="tram rail_urban rail rail_electric ship" oneway="0"/>
    <type id="highway.service" priority="1" numLanes="1" speed="5.56" allow="pedestrian delivery bicycle" oneway="0"/>
    <type id="highway.stairs" priority="1" numLanes="1" speed="1.39" allow="pedestrian" oneway="1" width="2.00"/>
    <type id="highway.step" priority="1" numLanes="1" speed="1.39" allow="pedestrian" oneway="1" width="2.00"/>
    <type id="highway.steps" priority="1" numLanes="1" speed="1.39" allow="pedestrian" oneway="1" width="2.00"/>
    <type id="highway.tertiary" priority="10" numLanes="1" speed="22.22" disallow="tram rail_urban rail rail_electric ship" oneway="0"/>
    <type id="highway.tertiary_link" priority="5" numLanes="1" speed="22.22" disallow="tram rail_urban rail rail_electric ship" oneway="0"/>
    <type id="highway.track" priority="1" numLanes="1" speed="5.56" disallow="tram rail_urban rail rail_electric ship" oneway="0"/>
    <type id="highway.trunk" priority="13" numLanes="2" speed="27.78" disallow="pedestrian bicycle tram rail_urban rail rail_electric ship" oneway="0"/>
    <type id="highway.trunk_link" priority="8" numLanes="1" speed="22.22" disallow="pedestrian bicycle tram rail_urban rail rail_electric ship" oneway="0"/>
    <type id="highway.unclassified" priority="4" numLanes="1" speed="13.89" disallow="tram rail_urban rail rail_electric ship" oneway="0"/>
    <type id="highway.unsurfaced" priority="1" numLanes="1" speed="8.33" disallow="tram rail_urban rail rail_electric ship" oneway="0"/>
    <type id="railway.light_rail" priority="19" numLanes="1" speed="27.78" allow="rail_urban" oneway="1"/>
    <type id="railway.preserved" priority="16" numLanes="1" speed="27.78" allow="rail" oneway="1"/>
    <type id="railway.rail" priority="20" numLanes="1" speed="83.33" allow="rail rail_electric" oneway="1"/>
    <type id="railway.subway" priority="18" numLanes="1" speed="27.78" allow="rail_urban" oneway="1"/>
    <type id="railway.tram" priority="17" numLanes="1" speed="13.89" allow="tram" oneway="1"/>

    <edge id=":C_041_0" function="internal">
        <lane id=":C_041_0_0" index="0" speed="16.67" length="10.48" width="3.30" shape="2494.26,532.68 2494.78,535.75 2495.78,537.75 2496.79,539.75 2497.29,542.83"/>
        <lane id=":C_041_0_1" index="1" speed="16.67" length="10.48" width="3.30" shape="2494.26,532.68 2493.99,542.90"/>
        <lane id=":C_041_0_2" index="2" speed="16.67" length="10.48" width="3.30" shape="2490.71,532.77 2491.27,535.85 2492.36,537.84 2493.45,539.82 2493.99,542.90"/>
        <lane id=":C_041_0_3" index="3" speed="16.67" length="10.48" width="3.30" shape="2490.71,532.77 2490.69,542.97"/>
    </edge>
    <edge id=":C_042_0" function="internal">
        <lane id=":C_042_0_0" index="0" speed="16.67" length="11.94" width="3.30" shape="2491.98,652.68 2491.00,649.27 2489.60,647.14 2488.21,645.00 2487.24,641.58"/>
        <lane id=":C_042_0_1" index="1" speed="16.67" length="11.94" width="3.30" shape="2491.98,652.68 2490.51,641.14"/>
        <lane id=":C_042_0_2" index="2" speed="16.67" length="11.94" width="3.30" shape="2495.49,652.19 2494.47,648.77 2492.99,646.66 2491.52,644.55 2490.51,641.14"/>
        <lane id=":C_042_0_3" index="3" speed="16.67" length="11.94" width="3.30" shape="2495.49,652.19 2493.78,640.69"/>
    </edge>
    <edge id=":C_042_4" function="internal">
        <lane id=":C_042_4_0" index="0" speed="6.32" length="9.13" width="3.30" shape="2482.19,647.52 2484.70,647.09 2486.38,645.96 2487.22,644.13 2487.24,641.58"/>
    </edge>
    <edge id=":C_043_0" function="internal">
        <lane id=":C_043_0_0" index="0" speed="13.89" length="8.31" width="3.30" shape="2533.15,620.23 2530.72,619.74 2528.92,620.04 2527.12,620.35 2524.70,619.85"/>
        <lane id=":C_043_0_1" index="1" speed="13.89" length="8.31" width="3.30" shape="2533.15,620.23 2525.91,616.78"/>
    </edge>
    <edge id=":C_051_0" function="internal">
        <lane id=":C_051_0_0" index="0" speed="19.44" length="8.16" width="3.30" shape="2566.67,348.10 2564.22,348.30 2562.60,349.20 2560.98,350.12 2558.52,350.37"/>
        <lane id=":C_051_0_1" index="1" speed="19.44" length="8.16" width="3.30" shape="2566.67,348.10 2558.83,347.09"/>
        <lane id=":C_051_0_2" index="2" speed="19.44" length="8.16" width="3.30" shape="2567.10,344.58 2559.15,343.80"/>
        <lane id=":C_051_0_3" index="3" speed="19.44" length="8.16" width="3.30" shape="2567.50,341.30 2559.46,340.52"/>
    </edge>
    <edge id=":C_052_0" function="internal">
        <lane id=":C_052_0_0" index="0" speed="16.67" length="3.86" width="3.80" shape="2475.45,376.10 2475.54,374.97 2475.80,374.21 2476.06,373.46 2476.16,372.33"/>
        <lane id=":C_052_0_1" index="1" speed="16.67" length="3.86" width="3.30" shape="2479.00,375.97 2479.09,374.85 2479.35,374.09 2479.61,373.33 2479.70,372.21"/>
    </edge>
    <edge id=":N_01_0" function="internal">
        <lane id=":N_01_0_0" index="0" speed="16.67" length="20.38" width="3.80" shape="2547.88,1043.09 2544.06,1022.95"/>
        <lane id=":N_01_0_1" index="1" speed="16.67" length="20.38" width="3.30" shape="2551.36,1042.40 2547.58,1022.49"/>
    </edge>
    <edge id=":N_01_2" function="internal">
        <lane id=":N_01_2_0" index="0" disallow="bus coach delivery truck trailer rail_fast" speed="9.95" length="6.63" width="3.00" shape="2551.36,1042.40 2551.57,1038.60 2553.10,1036.23"/>
    </edge>
    <edge id=":N_01_8" function="internal">
        <lane id=":N_01_8_0" index="0" disallow="bus coach delivery truck trailer rail_fast" speed="9.95" length="13.43" width="3.00" shape="2553.10,1036.23 2553.80,1035.15 2558.06,1032.03 2564.34,1029.26"/>
    </edge>
    <edge id=":N_01_3" function="internal">
        <lane id=":N_01_3_0" index="0" disallow="bus coach delivery truck trailer rail_fast" speed="7.40" length="10.69" width="3.80" shape="2565.57,1032.72 2562.74,1034.10 2560.87,1035.89 2559.98,1038.08 2560.05,1040.67"/>
    </edge>
    <edge id=":N_01_4" function="internal">
        <lane id=":N_01_4_0" index="0" disallow="bus coach delivery truck trailer rail_fast" speed="9.71" length="24.95" width="3.30" shape="2565.57,1032.72 2558.48,1034.21 2553.12,1033.00 2549.49,1029.10 2547.58,1022.49"/>
    </edge>
    <edge id=":N_01_5" function="internal">
        <lane id=":N_01_5_0" index="0" disallow="bus coach delivery truck trailer rail_fast" speed="7.16" length="12.69" width="3.00" shape="2557.05,1021.25 2558.03,1025.54 2559.58,1028.31 2561.68,1029.55 2564.34,1029.26"/>
    </edge>
    <edge id=":N_01_6" function="internal">
        <lane id=":N_01_6_0" index="0" speed="16.67" length="19.76" width="3.80" shape="2557.05,1021.25 2560.05,1040.67"/>
        <lane id=":N_01_6_1" index="1" speed="16.67" length="19.76" width="3.30" shape="2553.53,1021.71 2556.57,1041.36"/>
    </edge>
    <edge id=":N_02_0" function="internal">
        <lane id=":N_02_0_0" index="0" speed="10.20" length="23.65" width="3.50" shape="2524.82,875.64 2523.21,866.43 2521.17,859.98 2518.68,856.28 2515.76,855.34"/>
    </edge>
    <edge id=":N_02_1" function="internal">
        <lane id=":N_02_1_0" index="0" speed="16.67" length="31.00" width="3.80" shape="2524.82,875.64 2520.22,845.01"/>
        <lane id=":N_02_1_1" index="1" speed="16.67" length="31.00" width="3.30" shape="2528.33,875.15 2523.73,844.47"/>
    </edge>
    <edge id=":N_02_3" function="internal">
        <lane id=":N_02_3_0" index="0" disallow="bus coach delivery truck trailer rail_fast" speed="6.52" length="9.55" width="3.80" shape="2542.02,867.81 2539.36,868.32 2537.57,869.52 2536.66,871.42 2536.63,874.00"/>
    </edge>
    <edge id=":N_02_4" function="internal">
        <lane id=":N_02_4_0" index="0" disallow="bus coach delivery truck trailer rail_fast" speed="13.89" length="29.23" width="3.50" shape="2542.02,867.81 2536.51,865.88 2528.87,861.42 2521.25,857.03 2515.76,855.34"/>
    </edge>
    <edge id=":N_02_5" function="internal">
        <lane id=":N_02_5_0" index="0" disallow="bus coach delivery truck trailer rail_fast" speed="12.06" length="10.35" width="3.30" shape="2542.02,867.81 2536.58,865.55 2533.51,862.31"/>
    </edge>
    <edge id=":N_02_13" function="internal">
        <lane id=":N_02_13_0" index="0" disallow="bus coach delivery truck trailer rail_fast" speed="12.06" length="20.59" width="3.30" shape="2533.51,862.31 2530.92,859.57 2526.23,851.88 2523.73,844.47"/>
    </edge>
    <edge id=":N_02_6" function="internal">
        <lane id=":N_02_6_0" index="0" disallow="bus coach delivery truck trailer rail_fast" speed="10.69" length="23.78" width="3.50" shape="2532.56,843.12 2534.46,852.32 2536.63,858.84 2539.07,862.69 2541.79,863.86"/>
    </edge>
    <edge id=":N_02_7" function="internal">
        <lane id=":N_02_7_0" index="0" speed="16.67" length="31.12" width="3.80" shape="2532.56,843.12 2536.63,874.00"/>
        <lane id=":N_02_7_1" index="1" speed="16.67" length="31.12" width="3.30" shape="2529.05,843.66 2533.12,874.49"/>
    </edge>
    <edge id=":N_02_9" function="internal">
        <lane id=":N_02_9_0" index="0" speed="9.32" length="7.09" width="3.50" shape="2529.05,843.66 2528.82,847.99 2527.28,850.27"/>
    </edge>
    <edge id=":N_02_14" function="internal">
        <lane id=":N_02_14_0" index="0" speed="9.32" length="12.93" width="3.50" shape="2527.28,850.27 2526.53,851.38 2522.17,853.83 2515.76,855.34"/>
    </edge>
    <edge id=":N_02_10" function="internal">
        <lane id=":N_02_10_0" index="0" speed="6.61" length="9.40" width="3.80" shape="2515.23,851.52 2517.74,850.82 2519.41,849.50 2520.24,847.56 2520.22,845.01"/>
    </edge>
    <edge id=":N_02_11" function="internal">
        <lane id=":N_02_11_0" index="0" disallow="bus coach delivery truck trailer rail_fast" speed="13.89" length="29.44" width="3.50" shape="2515.23,851.52 2520.77,853.21 2528.50,857.55 2536.23,861.96 2541.79,863.86"/>
    </edge>
    <edge id=":N_02_12" function="internal">
        <lane id=":N_02_12_0" index="0" speed="11.56" length="9.63" width="3.30" shape="2515.23,851.52 2520.64,853.50 2523.30,856.31"/>
    </edge>
    <edge id=":N_02_15" function="internal">
        <lane id=":N_02_15_0" index="0" speed="11.56" length="20.95" width="3.30" shape="2523.30,856.31 2526.19,859.37 2530.74,867.06 2533.12,874.49"/>
    </edge>
    <edge id=":N_03_0" function="internal">
        <lane id=":N_03_0_0" index="0" speed="7.10" length="8.09" width="3.00" shape="2508.17,766.41 2507.58,764.72 2506.40,763.37 2504.62,762.38 2502.24,761.73"/>
    </edge>
    <edge id=":N_03_1" function="internal">
        <lane id=":N_03_1_0" index="0" speed="16.67" length="10.78" width="3.80" shape="2508.17,766.41 2506.54,755.71"/>
        <lane id=":N_03_1_1" index="1" speed="16.67" length="10.78" width="3.30" shape="2511.67,765.83 2510.05,755.21"/>
    </edge>
    <edge id=":N_03_3" function="internal">
        <lane id=":N_03_3_0" index="0" speed="16.67" length="10.58" width="3.80" shape="2517.81,754.12 2519.42,764.53"/>
        <lane id=":N_03_3_1" index="1" speed="16.67" length="10.58" width="3.30" shape="2514.30,754.61 2515.91,765.12"/>
    </edge>
    <edge id=":N_03_5" function="internal">
        <lane id=":N_03_5_0" index="0" speed="7.92" length="4.98" width="3.00" shape="2514.30,754.61 2514.02,758.60 2513.40,759.35"/>
    </edge>
    <edge id=":N_03_6" function="internal">
        <lane id=":N_03_6_0" index="0" speed="7.92" length="12.13" width="3.00" shape="2513.40,759.35 2511.92,761.12 2507.99,762.16 2502.24,761.73"/>
    </edge>
    <edge id=":N_04_0" function="internal">
        <lane id=":N_04_0_0" index="0" speed="14.51" length="25.35" width="3.30" shape="2484.07,618.42 2482.50,611.25 2479.92,605.34 2476.34,600.69 2471.75,597.31"/>
    </edge>
    <edge id=":N_04_1" function="internal">
        <lane id=":N_04_1_0" index="0" speed="16.67" length="34.04" width="3.80" shape="2484.07,618.42 2483.08,608.22 2482.86,599.52 2482.95,591.73 2482.91,584.27"/>
        <lane id=":N_04_1_1" index="1" speed="16.67" length="34.04" width="3.30" shape="2487.34,617.98 2486.39,607.83 2486.27,599.24 2486.46,591.56 2486.46,584.14"/>
    </edge>
    <edge id=":N_04_3" function="internal">
        <lane id=":N_04_3_0" index="0" speed="9.37" length="10.02" width="3.30" shape="2490.61,617.54 2491.05,609.89 2492.40,607.95"/>
    </edge>
    <edge id=":N_04_16" function="internal">
        <lane id=":N_04_16_0" index="0" speed="9.37" length="17.49" width="3.30" shape="2492.40,607.95 2494.45,604.97 2500.25,603.11 2507.89,604.60"/>
    </edge>
    <edge id=":N_04_4" function="internal">
        <lane id=":N_04_4_0" index="0" speed="5.80" length="9.63" width="3.80" shape="2504.96,612.08 2502.13,611.37 2500.24,611.85 2499.29,613.52 2499.28,616.37"/>
    </edge>
    <edge id=":N_04_5" function="internal">
        <lane id=":N_04_5_0" index="0" speed="13.89" length="36.16" width="3.30" shape="2504.96,612.08 2497.08,608.90 2488.16,605.10 2479.34,601.11 2471.75,597.31"/>
        <lane id=":N_04_5_1" index="1" speed="13.89" length="36.16" width="3.30" shape="2506.16,609.01 2498.34,605.85 2489.55,602.12 2480.86,598.18 2473.32,594.40"/>
    </edge>
    <edge id=":N_04_7" function="internal">
        <lane id=":N_04_7_0" index="0" speed="14.53" length="12.63" width="3.30" shape="2506.16,609.01 2497.77,604.64 2495.44,602.49"/>
    </edge>
    <edge id=":N_04_17" function="internal">
        <lane id=":N_04_17_0" index="0" speed="14.53" length="21.09" width="3.30" shape="2495.44,602.49 2491.69,599.04 2487.92,592.20 2486.46,584.14"/>
    </edge>
    <edge id=":N_04_8" function="internal">
        <lane id=":N_04_8_0" index="0" speed="12.29" length="24.35" width="3.30" shape="2498.17,583.73 2498.92,591.48 2500.78,597.55 2503.78,601.92 2507.89,604.60"/>
    </edge>
    <edge id=":N_04_9" function="internal">
        <lane id=":N_04_9_0" index="0" speed="16.67" length="32.86" width="3.80" shape="2498.17,583.73 2498.29,593.76 2498.35,601.95 2498.59,609.20 2499.28,616.37"/>
        <lane id=":N_04_9_1" index="1" speed="16.67" length="32.86" width="3.30" shape="2494.87,583.84 2494.96,593.93 2494.94,602.25 2495.11,609.61 2495.77,616.84"/>
    </edge>
    <edge id=":N_04_11" function="internal">
        <lane id=":N_04_11_0" index="0" speed="9.24" length="9.21" width="3.30" shape="2491.57,583.96 2490.27,591.30 2489.10,592.61"/>
    </edge>
    <edge id=":N_04_18" function="internal">
        <lane id=":N_04_18_0" index="0" speed="9.24" length="17.61" width="3.30" shape="2489.10,592.61 2486.39,595.65 2480.54,596.76 2473.32,594.40"/>
    </edge>
    <edge id=":N_04_12" function="internal">
        <lane id=":N_04_12_0" index="0" speed="5.78" length="9.67" width="3.80" shape="2476.86,587.87 2479.60,588.94 2481.52,588.69 2482.63,587.14 2482.91,584.27"/>
    </edge>
    <edge id=":N_04_13" function="internal">
        <lane id=":N_04_13_0" index="0" speed="13.89" length="35.35" width="3.30" shape="2476.86,587.87 2484.75,592.25 2493.92,597.35 2502.31,601.89 2507.89,604.60"/>
        <lane id=":N_04_13_1" index="1" speed="13.89" length="35.35" width="3.30" shape="2475.29,590.77 2483.43,594.70 2493.13,598.80 2502.07,602.35 2507.89,604.60"/>
    </edge>
    <edge id=":N_04_15" function="internal">
        <lane id=":N_04_15_0" index="0" speed="15.28" length="10.76" width="3.30" shape="2475.29,590.77 2483.44,596.16 2484.14,596.86"/>
    </edge>
    <edge id=":N_04_19" function="internal">
        <lane id=":N_04_19_0" index="0" speed="15.28" length="23.64" width="3.30" shape="2484.14,596.86 2489.57,602.30 2493.68,609.19 2495.77,616.84"/>
    </edge>
    <edge id=":N_05_0" function="internal">
        <lane id=":N_05_0_0" index="0" speed="11.32" length="28.50" shape="2475.46,351.47 2474.71,339.86 2473.34,331.57 2471.35,326.59 2468.74,324.93"/>
    </edge>
    <edge id=":N_05_1" function="internal">
        <lane id=":N_05_1_0" index="0" speed="16.67" length="48.11" width="3.50" shape="2475.46,351.47 2474.58,303.45"/>
        <lane id=":N_05_1_1" index="1" speed="16.67" length="48.11" width="3.50" shape="2475.46,351.47 2475.76,341.15 2476.72,327.42 2477.71,313.70 2478.08,303.37"/>
    </edge>
    <edge id=":N_05_3" function="internal">
        <lane id=":N_05_3_0" index="0" speed="16.67" length="49.18" width="3.30" shape="2479.01,351.38 2479.22,340.84 2480.31,326.72 2482.25,312.77 2485.00,302.75"/>
        <lane id=":N_05_3_1" index="1" speed="16.67" length="48.27" width="3.30" shape="2479.01,351.38 2479.69,341.06 2481.81,327.41 2484.78,313.94 2488.00,304.13"/>
    </edge>
    <edge id=":N_05_5" function="internal">
        <lane id=":N_05_5_0" index="0" speed="12.99" length="20.96" width="3.30" shape="2479.01,351.38 2479.97,339.07 2484.04,331.48"/>
    </edge>
    <edge id=":N_05_17" function="internal">
        <lane id=":N_05_17_0" index="0" speed="12.99" length="21.49" width="3.30" shape="2484.04,331.48 2484.18,331.23 2492.17,327.35 2504.49,326.95"/>
    </edge>
    <edge id=":N_05_6" function="internal">
        <lane id=":N_05_6_0" index="0" speed="8.17" length="15.91" width="3.80" shape="2502.95,346.22 2496.97,346.17 2492.73,346.96 2490.21,348.60 2489.43,351.10"/>
    </edge>
    <edge id=":N_05_7" function="internal">
        <lane id=":N_05_7_0" index="0" speed="16.66" length="39.47" shape="2503.21,342.93 2490.34,339.54 2480.57,333.42 2473.50,327.55 2468.74,324.93"/>
    </edge>
    <edge id=":N_05_8" function="internal">
        <lane id=":N_05_8_0" index="0" speed="15.43" length="51.71" width="3.50" shape="2503.47,339.64 2491.09,336.64 2482.15,329.60 2476.64,318.54 2474.58,303.45"/>
        <lane id=":N_05_8_1" index="1" speed="14.66" length="46.62" width="3.50" shape="2503.74,336.35 2492.75,333.63 2484.81,327.23 2479.92,317.14 2478.08,303.37"/>
    </edge>
    <edge id=":N_05_10" function="internal">
        <lane id=":N_05_10_0" index="0" speed="12.33" length="44.76" width="3.30" shape="2503.74,336.35 2491.72,333.27 2485.29,326.50 2484.15,316.60 2488.00,304.13"/>
    </edge>
    <edge id=":N_05_11" function="internal">
        <lane id=":N_05_11_0" index="0" speed="7.55" length="15.73" width="3.80" shape="2499.04,309.22 2497.68,313.67 2498.23,316.97 2500.68,319.12 2505.03,320.12"/>
    </edge>
    <edge id=":N_05_12" function="internal">
        <lane id=":N_05_12_0" index="0" speed="16.67" length="44.87" width="3.80" shape="2495.95,307.79 2492.25,318.90 2490.24,330.81 2489.45,342.03 2489.43,351.10"/>
        <lane id=":N_05_12_1" index="1" speed="16.67" length="44.87" width="3.30" shape="2492.95,306.41 2489.17,317.75 2486.97,330.17 2485.99,341.90 2485.88,351.19"/>
    </edge>
    <edge id=":N_05_14" function="internal">
        <lane id=":N_05_14_0" index="0" speed="9.47" length="20.64" width="3.50" shape="2468.74,321.73 2471.43,320.59 2473.30,317.16 2474.35,311.45 2474.58,303.45"/>
    </edge>
    <edge id=":N_05_15" function="internal">
        <lane id=":N_05_15_0" index="0" speed="12.92" length="25.94" width="3.30" shape="2468.74,321.73 2472.57,320.55 2476.56,316.99 2480.70,311.06 2485.00,302.75"/>
    </edge>
    <edge id=":N_05_16" function="internal">
        <lane id=":N_05_16_0" index="0" speed="16.66" length="36.06" width="3.30" shape="2468.74,321.73 2504.75,323.66"/>
    </edge>
    <edge id=":N_06_0" function="internal">
        <lane id=":N_06_0_0" index="0" speed="13.89" length="27.30" width="3.50" shape="2355.42,887.80 2349.87,886.48 2342.04,884.73 2334.20,883.32 2328.61,883.04"/>
    </edge>
    <edge id=":N_06_1" function="internal">
        <lane id=":N_06_1_0" index="0" speed="13.30" length="28.92" width="3.50" shape="2355.42,887.80 2348.01,885.18 2342.34,881.11 2338.43,875.58 2336.28,868.59"/>
    </edge>
    <edge id=":N_06_2" function="internal">
        <lane id=":N_06_2_0" index="0" speed="6.95" length="5.48" width="3.50" shape="2355.42,887.80 2350.78,884.90"/>
    </edge>
    <edge id=":N_06_12" function="internal">
        <lane id=":N_06_12_0" index="0" speed="6.95" length="14.77" width="3.50" shape="2350.78,884.90 2348.90,880.21 2350.03,875.65 2354.40,873.16"/>
    </edge>
    <edge id=":N_06_3" function="internal">
        <lane id=":N_06_3_0" index="0" speed="6.75" length="18.59" width="3.00" shape="2355.01,877.66 2348.93,878.93 2347.12,880.44 2349.57,882.19 2356.29,884.20"/>
    </edge>
    <edge id=":N_06_4" function="internal">
        <lane id=":N_06_4_0" index="0" speed="13.89" length="26.94" width="3.50" shape="2355.01,877.66 2328.61,883.04"/>
    </edge>
    <edge id=":N_06_5" function="internal">
        <lane id=":N_06_5_0" index="0" speed="10.24" length="9.02" width="3.50" shape="2355.01,877.66 2347.52,877.97 2346.04,877.60"/>
    </edge>
    <edge id=":N_06_13" function="internal">
        <lane id=":N_06_13_0" index="0" speed="10.24" length="14.34" width="3.50" shape="2346.04,877.60 2341.91,876.56 2338.16,873.44 2336.28,868.59"/>
    </edge>
    <edge id=":N_06_6" function="internal">
        <lane id=":N_06_6_0" index="0" speed="8.80" length="16.96" width="3.50" shape="2339.96,867.98 2341.28,870.92 2344.12,872.76 2348.50,873.51 2354.40,873.16"/>
    </edge>
    <edge id=":N_06_7" function="internal">
        <lane id=":N_06_7_0" index="0" speed="12.34" length="24.52" width="3.00" shape="2339.96,867.98 2341.74,873.79 2345.06,878.43 2349.91,881.90 2356.29,884.20"/>
    </edge>
    <edge id=":N_06_8" function="internal">
        <lane id=":N_06_8_0" index="0" speed="9.72" length="3.82" width="3.50" shape="2339.96,867.98 2340.01,871.80"/>
    </edge>
    <edge id=":N_06_14" function="internal">
        <lane id=":N_06_14_0" index="0" speed="9.72" length="17.74" width="3.50" shape="2340.01,871.80 2340.03,873.83 2338.17,878.29 2334.36,881.36 2328.61,883.04"/>
    </edge>
    <edge id=":N_06_9" function="internal">
        <lane id=":N_06_9_0" index="0" speed="8.17" length="14.83" width="3.50" shape="2327.95,878.57 2332.12,877.38 2334.90,875.32 2336.29,872.39 2336.28,868.59"/>
    </edge>
    <edge id=":N_06_10" function="internal">
        <lane id=":N_06_10_0" index="0" speed="13.89" length="26.99" width="3.50" shape="2327.95,878.57 2354.40,873.16"/>
    </edge>
    <edge id=":N_06_11" function="internal">
        <lane id=":N_06_11_0" index="0" speed="13.89" length="6.70" width="3.00" shape="2327.95,878.57 2333.78,878.96 2334.62,879.13"/>
    </edge>
    <edge id=":N_06_15" function="internal">
        <lane id=":N_06_15_0" index="0" speed="13.89" length="22.26" width="3.00" shape="2334.62,879.13 2342.15,880.66 2350.51,882.72 2356.29,884.20"/>
    </edge>
    <edge id=":N_07_0" function="internal">
        <lane id=":N_07_0_0" index="0" speed="13.89" length="41.52" width="3.30" shape="2298.61,529.52 2298.44,522.09 2297.80,510.08 2295.90,497.67 2291.95,489.02"/>
    </edge>
    <edge id=":N_07_1" function="internal">
        <lane id=":N_07_1_0" index="0" speed="12.34" length="50.04" width="3.30" shape="2298.61,529.52 2301.01,516.45 2308.87,509.58 2320.52,508.72 2334.29,513.68"/>
    </edge>
    <edge id=":N_07_2" function="internal">
        <lane id=":N_07_2_0" index="0" speed="10.92" length="38.82" width="3.30" shape="2330.38,520.82 2317.84,515.49 2309.07,515.12 2304.08,519.72 2302.87,529.28"/>
    </edge>
    <edge id=":N_07_3" function="internal">
        <lane id=":N_07_3_0" index="0" speed="13.89" length="49.47" width="3.30" shape="2330.38,520.82 2321.65,514.85 2310.49,505.82 2299.67,496.34 2291.95,489.02"/>
        <lane id=":N_07_3_1" index="1" speed="13.89" length="49.47" width="3.30" shape="2331.97,517.92 2323.36,512.05 2312.46,503.22 2301.91,493.94 2294.31,486.72"/>
    </edge>
    <edge id=":N_07_5" function="internal">
        <lane id=":N_07_5_0" index="0" speed="13.89" length="47.12" width="3.30" shape="2299.54,481.73 2306.95,488.59 2317.06,497.12 2327.48,505.22 2335.87,510.78"/>
        <lane id=":N_07_5_1" index="1" speed="13.89" length="47.12" width="3.30" shape="2297.12,483.97 2304.66,490.94 2315.05,499.69 2325.77,508.01 2334.29,513.68"/>
    </edge>
    <edge id=":N_07_7" function="internal">
        <lane id=":N_07_7_0" index="0" speed="13.89" length="3.54" width="3.30" shape="2297.12,483.97 2298.46,487.25"/>
    </edge>
    <edge id=":N_07_8" function="internal">
        <lane id=":N_07_8_0" index="0" speed="13.89" length="42.61" width="3.30" shape="2298.46,487.25 2300.94,493.35 2302.53,507.42 2302.84,521.09 2302.87,529.28"/>
    </edge>

    <edge id="-E0" from="J0" to="N_05" priority="-1">
        <lane id="-E0_0" index="0" speed="13.89" length="48.06" shape="2420.68,321.67 2468.74,321.73"/>
    </edge>
    <edge id="E0" from="N_05" to="J0" priority="-1">
        <lane id="E0_0" index="0" speed="13.89" length="48.06" shape="2468.74,324.93 2420.67,324.87"/>
    </edge>
    <edge id="L_0102" from="N_01" to="N_02" priority="3" spreadType="center" shape="2546.20,1026.56 2523.61,853.68">
        <lane id="L_0102_0" index="0" speed="16.67" length="148.57" width="3.80" shape="2544.06,1022.95 2524.82,875.64"/>
        <lane id="L_0102_1" index="1" speed="16.67" length="148.57" width="3.30" shape="2547.58,1022.49 2528.33,875.15"/>
    </edge>
    <edge id="L_0108" from="N_01" to="OUT_08" priority="3" spreadType="center" shape="2558.43,1040.99 2570.83,1103.28 2579.38,1132.99">
        <lane id="L_0108_0" index="0" speed="16.67" length="94.44" width="3.80" shape="2560.05,1040.67 2572.43,1102.89 2580.97,1132.53"/>
        <lane id="L_0108_1" index="1" speed="16.67" length="94.44" width="3.30" shape="2556.57,1041.36 2568.98,1103.73 2577.55,1133.52"/>
    </edge>
    <edge id="L_0109" from="N_01" to="OUT_09" priority="1" spreadType="center" shape="2564.01,1029.38 2614.61,1011.35">
        <lane id="L_0109_0" index="0" disallow="bus coach delivery truck trailer rail_fast" speed="13.89" length="53.36" width="3.00" shape="2564.34,1029.26 2614.61,1011.35"/>
    </edge>
    <edge id="L_0201" from="N_02" to="N_01" priority="3" spreadType="center" shape="2531.92,852.03 2555.33,1020.85">
        <lane id="L_0201_0" index="0" speed="16.67" length="148.64" width="3.80" shape="2536.63,874.00 2557.05,1021.25"/>
        <lane id="L_0201_1" index="1" speed="16.67" length="148.64" width="3.30" shape="2533.12,874.49 2553.53,1021.71"/>
    </edge>
    <edge id="L_0203" from="N_02" to="N_03" priority="3" spreadType="center" shape="2522.64,849.90 2509.57,764.66">
        <lane id="L_0203_0" index="0" speed="16.67" length="79.54" width="3.80" shape="2520.22,845.01 2508.17,766.41"/>