Taipei E2 Orig:

<?xml version="1.0" encoding="UTF-8"?>

<!-- generated on 2022-07-13 16:05:56 by Eclipse SUMO netedit Version 1.13.0
-->

<additional xmlns:xsi="http://www.w3.org/2001/XMLSchema-instance" xsi:noNamespaceSchemaLocation="http://sumo.dlr.de/xsd/additional_file.xsd">
<!-- X2_A -->
	
<!-- X2_B -->
	<laneAreaDetector id="X2_B_0" freq="1800" file="NUL" lane="L_0302_0" pos="0" length="79"/>                                               
	<laneAreaDetector id="X2_B_1" freq="1800" file="NUL" lane="L_0302_1" pos="0" length="79"/> 
	
<!-- X2_C -->
	<laneAreaDetector id="X2_C_0" freq="1800" file="NUL" lane="L_0602_0" pos="12" length="150"/>
	
<!-- X2_D -->
	<laneAreaDetector id="X2_D_0" freq="1800" file="NUL" lane="L_0102_0" pos="0" length="148"/>                                               
	<laneAreaDetector id="X2_D_1" freq="1800" file="NUL" lane="L_0102_1" pos="0" length="148"/>
	

<!-- X3_A -->
	
<!-- X3_B -->
	<laneAreaDetector id="X3_B_0" freq="1800" file="NUL" lane="L_0403_0" pos="0" length="139"/>                                               
	<laneAreaDetector id="X3_B_1" freq="1800" file="NUL" lane="L_0403_1" pos="0" length="139"/> 
	
<!-- X3_C -->
	
<!-- X3_D -->
	<laneAreaDetector id="X3_D_0" freq="1800" file="NUL" lane="L_0203_0" pos="0" length="79"/>                                               
	<laneAreaDetector id="X3_D_1" freq="1800" file="NUL" lane="L_0203_1" pos="0" length="79"/>


<!-- X4_A -->
	<laneAreaDetector id="X4_A_0" freq="1800" file="NUL" lane="L_1404_0" pos="0" length="20"/>
	<laneAreaDetector id="X4_A_1" freq="1800" file="NUL" lane="L_1404_1" pos="0" length="20"/>
	<laneAreaDetector id="X4_A_2" freq="1800" file="NUL" lane="L_14041_0" pos="85" length="130"/>
	
<!-- X4_B -->
	<laneAreaDetector id="X4_B_0" freq="1800" file="NUL" lane="L_0504_0" pos="0" length="40"/>                                               
	<laneAreaDetector id="X4_B_1" freq="1800" file="NUL" lane="L_0504_1" pos="0" length="40"/>
	<laneAreaDetector id="X4_B_2" freq="1800" file="NUL" lane="L_0504_2" pos="0" length="40"/>                                               
	<laneAreaDetector id="X4_B_3" freq="1800" file="NUL" lane="L_05041_0" pos="71" length="110"/>
	<laneAreaDetector id="X4_B_4" freq="1800" file="NUL" lane="L_05041_1" pos="71" length="110"/>
	
<!-- X4_C -->
	<laneAreaDetector id="X4_C_0" freq="1800" file="NUL" lane="L_0704_0" pos="10" length="150"/>
	<laneAreaDetector id="X4_C_1" freq="1800" file="NUL" lane="L_0704_1" pos="10" length="150"/>	
	
<!-- X4_D -->
	<laneAreaDetector id="X4_D_0" freq="1800" file="NUL" lane="L_0304_0" pos="0" length="23"/>                                               
	<laneAreaDetector id="X4_D_1" freq="1800" file="NUL" lane="L_0304_1" pos="0" length="23"/>
	<laneAreaDetector id="X4_D_2" freq="1800" file="NUL" lane="L_0304_2" pos="0" length="23"/>                                               
	<laneAreaDetector id="X4_D_3" freq="1800" file="NUL" lane="L_03041_0" pos="0" length="104"/>
	<laneAreaDetector id="X4_D_4" freq="1800" file="NUL" lane="L_03041_1" pos="0" length="104"/>

</additional>
