<?xml version="1.0" encoding="UTF-8"?>

<!-- generated on 2023-07-22 15:22:00 by Eclipse SUMO jtrrouter Version 1.16.0
<configuration xmlns:xsi="http://www.w3.org/2001/XMLSchema-instance" xsi:noNamespaceSchemaLocation="http://sumo.dlr.de/xsd/jtrrouterConfiguration.xsd">

    <input>
        <net-file value="D:\02_運研所AI號控\建模檔\TEST_V2\SUMO_IOT_Taipei_testing\B1\sumo_Taipei_AM\Taipei_AM.net.xml"/>
        <route-files value="D:\02_運研所AI號控\建模檔\TEST_V2\SUMO_IOT_Taipei_testing\B1\sumo_Taipei_AM\router_AM_m.flowdef.xml"/>
        <turn-ratio-files value="D:\02_運研所AI號控\建模檔\TEST_V2\SUMO_IOT_Taipei_testing\B1\sumo_Taipei_AM\router_AM_m.turndef.xml"/>
    </input>

    <output>
        <output-file value="D:\02_運研所AI號控\建模檔\TEST_V2\SUMO_IOT_Taipei_testing\B1\sumo_Taipei_AM\router_AM_m.rou.xml"/>
    </output>

    <time>
        <begin value="0"/>
        <end value="10800"/>
    </time>

    <random_number>
        <seed value="4310"/>
    </random_number>

</configuration>
-->

<routes xmlns:xsi="http://www.w3.org/2001/XMLSchema-instance" xsi:noNamespaceSchemaLocation="http://sumo.dlr.de/xsd/routes_file.xsd">
    <vType id="motor" length="1.60" minGap="0.20" maxSpeed="70.00" vClass="moped" latAlignment="right" minGapLat="0.10" lcPushy="0.8" accel="3.6" decel="3.0" emergencyDecel="7.5" sigma="0.25" tau="0.95"/>
    <vehicle id="IN_16_m_1.0" type="motor" depart="2.00" departLane="best">
        <route edges="L_1607 L_0704 L_0414"/>
    </vehicle>
    <vehicle id="IN_16_m_1.1" type="motor" depart="3.00" departLane="best">
        <route edges="L_1607 L_0704 L_0414"/>
    </vehicle>
    <vehicle id="IN_19_m_1.0" type="motor" depart="4.00" departLane="best">
        <route edges="L_1905 L_05041 L_0504 L_0403 L_0302 L_0201 L_0108"/>
    </vehicle>
    <vehicle id="IN_19_m_1.1" type="motor" depart="7.00" departLane="best">
        <route edges="L_1905 L_05041 L_0504 L_0403 L_0302 L_0201 L_0108"/>
    </vehicle>
    <vehicle id="IN_19_m_1.2" type="motor" depart="11.00" departLane="best">
        <route edges="L_1905 L_05041 L_0504 L_0403 L_0302 L_0201 L_0108"/>
    </vehicle>
    <vehicle id="IN_08_m_1.0" type="motor" depart="12.00" departLane="best">
        <route edges="L_0801 L_0102 L_0203 L_03041 L_0304 L_0407 L_0716"/>
    </vehicle>
    <vehicle id="IN_14_m_1.0" type="motor" depart="12.00" departLane="best">
        <route edges="L_14041 L_1404 L_0407 L_0716"/>
    </vehicle>
    <vehicle id="IN_08_m_1.1" type="motor" depart="15.00" departLane="best">
        <route edges="L_0801 L_0102 L_0203 L_03041 L_0304 L_04051 L_04052 L_0520"/>
    </vehicle>
    <vehicle id="IN_19_m_1.3" type="motor" depart="16.00" departLane="best">
        <route edges="L_1905 L_05041 L_0504 L_0414"/>
    </vehicle>
    <vehicle id="IN_16_m_1.2" type="motor" depart="17.00" departLane="best">
        <route edges="L_1607 L_0704 L_0403 L_0302 L_0201 L_0108"/>
    </vehicle>
    <vehicle id="IN_18_m_1.0" type="motor" depart="18.00" departLane="best">
        <route edges="L_18051 L_1805 L_0520"/>
    </vehicle>
    <vehicle id="IN_14_m_1.1" type="motor" depart="19.00" departLane="best">
        <route edges="L_14041 L_1404 L_04051 L_04052 L_0519"/>
    </vehicle>
    <vehicle id="IN_15_m_1.0" type="motor" depart="20.00" departLane="best">
        <route edges="L_1507 L_0716"/>
    </vehicle>
    <vehicle id="IN_11_m_1.0" type="motor" depart="22.00" departLane="best">
        <route edges="L_1106 L_0602 L_0201 L_0109"/>
    </vehicle>
    <vehicle id="IN_16_m_1.3" type="motor" depart="24.00" departLane="best">
        <route edges="L_1607 L_0704 L_0414"/>
    </vehicle>
    <vehicle id="IN_16_m_1.4" type="motor" depart="25.00" departLane="best">
        <route edges="L_1607 L_0704 L_0414"/>
    </vehicle>
    <vehicle id="IN_19_m_1.4" type="motor" depart="25.00" departLane="best">
        <route edges="L_1905 L_05041 L_0504 L_0403 L_0302 L_0201 L_0108"/>
    </vehicle>
    <vehicle id="IN_14_m_1.2" type="motor" depart="27.00" departLane="best">
        <route edges="L_14041 L_1404 L_0407 L_0715"/>
    </vehicle>
    <vehicle id="IN_11_m_1.1" type="motor" depart="28.00" departLane="best">
        <route edges="L_1106 L_0602 L_0203 L_03041 L_0304 L_04051 L_04052 L_0519"/>
    </vehicle>
    <vehicle id="IN_19_m_1.5" type="motor" depart="30.00" departLane="best">
        <route edges="L_1905 L_05041 L_0504 L_0403 L_0302 L_0201 L_0108"/>
    </vehicle>
    <vehicle id="IN_16_m_1.5" type="motor" depart="33.00" departLane="best">
        <route edges="L_1607 L_0704 L_0414"/>
    </vehicle>
    <vehicle id="IN_11_m_1.2" type="motor" depart="39.00" departLane="best">
        <route edges="L_1106 L_0602 L_0201 L_0108"/>
    </vehicle>
    <vehicle id="IN_18_m_1.1" type="motor" depart="43.00" departLane="best">
        <route edges="L_18051 L_1805 L_0520"/>
    </vehicle>
    <vehicle id="IN_08_m_1.2" type="motor" depart="44.00" departLane="best">
        <route edges="L_0801 L_0102 L_0203 L_03041 L_0304 L_04051 L_04052 L_0519"/>
    </vehicle>
    <vehicle id="IN_18_m_1.2" type="motor" depart="45.00" departLane="best">
        <route edges="L_18051 L_1805 L_0520"/>
    </vehicle>
    <vehicle id="IN_19_m_1.6" type="motor" depart="49.00" departLane="best">
        <route edges="L_1905 L_05041 L_0504 L_0403 L_0302 L_0201 L_0108"/>
    </vehicle>
    <vehicle id="IN_18_m_1.3" type="motor" depart="51.00" departLane="best">
        <route edges="L_18051 L_1805 L_05041 L_0504 L_0414"/>
    </vehicle>
    <vehicle id="IN_21_m_1.0" type="motor" depart="51.00" departLane="best">
        <route edges="L_2106 L_0612"/>
    </vehicle>
    <vehicle id="IN_14_m_1.3" type="motor" depart="52.00" departLane="best">
        <route edges="L_14041 L_1404 L_0407 L_0715"/>
    </vehicle>
    <vehicle id="IN_18_m_1.4" type="motor" depart="57.00" departLane="best">
        <route edges="L_18051 L_1805 L_0520"/>
    </vehicle>
    <vehicle id="IN_11_m_1.3" type="motor" depart="58.00" departLane="best">
        <route edges="L_1106 L_0602 L_0210"/>
    </vehicle>
    <vehicle id="IN_16_m_1.6" type="motor" depart="61.00" departLane="best">
        <route edges="L_1607 L_0704 L_0414"/>
    </vehicle>
    <vehicle id="IN_11_m_1.4" type="motor" depart="62.00" departLane="best">
        <route edges="L_1106 L_0612"/>
    </vehicle>
    <vehicle id="IN_19_m_1.7" type="motor" depart="62.00" departLane="best">
        <route edges="L_1905 L_05041 L_0504 L_0403 L_0302 L_0206 L_0611"/>
    </vehicle>
    <vehicle id="IN_21_m_1.1" type="motor" depart="63.00" departLane="best">
        <route edges="L_2106 L_0611"/>
    </vehicle>
    <vehicle id="IN_08_m_1.3" type="motor" depart="65.00" departLane="best">
        <route edges="L_0801 L_0102 L_0206 L_0611"/>
    </vehicle>
    <vehicle id="IN_11_m_1.5" type="motor" depart="66.00" departLane="best">
        <route edges="L_1106 L_0602 L_0203 L_03041 L_0304 L_04051 L_04052 L_0519"/>
    </vehicle>
    <vehicle id="IN_19_m_1.8" type="motor" depart="69.00" departLane="best">
        <route edges="L_1905 L_05041 L_0504 L_0403 L_0302 L_0201 L_0108"/>
    </vehicle>
    <vehicle id="IN_08_m_1.4" type="motor" depart="72.00" departLane="best">
        <route edges="L_0801 L_0102 L_0203 L_03041 L_0304 L_04051 L_04052 L_0520"/>
    </vehicle>
    <vehicle id="IN_08_m_1.5" type="motor" depart="73.00" departLane="best">
        <route edges="L_0801 L_0102 L_0203 L_03041 L_0304 L_0407 L_0716"/>
    </vehicle>
    <vehicle id="IN_16_m_1.7" type="motor" depart="75.00" departLane="best">
        <route edges="L_1607 L_0704 L_0414"/>
    </vehicle>
    <vehicle id="IN_11_m_1.6" type="motor" depart="77.00" departLane="best">
        <route edges="L_1106 L_0602 L_0210"/>
    </vehicle>
    <vehicle id="IN_19_m_1.9" type="motor" depart="81.00" departLane="best">
        <route edges="L_1905 L_0518"/>
    </vehicle>
    <vehicle id="IN_16_m_1.8" type="motor" depart="85.00" departLane="best">
        <route edges="L_1607 L_0704 L_0403 L_0302 L_0206 L_0611"/>
    </vehicle>
    <vehicle id="IN_12_m_1.0" type="motor" depart="87.00" departLane="best">
        <route edges="L_1206 L_0621"/>
    </vehicle>
    <vehicle id="IN_19_m_1.10" type="motor" depart="87.00" departLane="best">
        <route edges="L_1905 L_05041 L_0504 L_0403 L_0302 L_0201 L_0108"/>
    </vehicle>
    <vehicle id="IN_19_m_1.11" type="motor" depart="88.00" departLane="best">
        <route edges="L_1905 L_05041 L_0504 L_0414"/>
    </vehicle>
    <vehicle id="IN_14_m_1.4" type="motor" depart="89.00" departLane="best">
        <route edges="L_14041 L_1404 L_0407 L_0716"/>
    </vehicle>
    <vehicle id="IN_14_m_1.5" type="motor" depart="95.00" departLane="best">
        <route edges="L_14041 L_1404 L_0407 L_0716"/>
    </vehicle>
    <vehicle id="IN_16_m_1.9" type="motor" depart="95.00" departLane="best">
        <route edges="L_1607 L_0704 L_0414"/>
    </vehicle>
    <vehicle id="IN_19_m_1.12" type="motor" depart="101.00" departLane="best">
        <route edges="L_1905 L_0518"/>
    </vehicle>
    <vehicle id="IN_19_m_1.13" type="motor" depart="103.00" departLane="best">
        <route edges="L_1905 L_05041 L_0504 L_0403 L_0302 L_0201 L_0108"/>
    </vehicle>
    <vehicle id="IN_14_m_1.6" type="motor" depart="110.00" departLane="best">
        <route edges="L_14041 L_1404 L_0407 L_0716"/>
    </vehicle>
    <vehicle id="IN_12_m_1.1" type="motor" depart="112.00" departLane="best">
        <route edges="L_1206 L_0611"/>
    </vehicle>
    <vehicle id="IN_19_m_1.14" type="motor" depart="115.00" departLane="best">
        <route edges="L_1905 L_05041 L_0504 L_0414"/>
    </vehicle>
    <vehicle id="IN_18_m_1.5" type="motor" depart="120.00" departLane="best">
        <route edges="L_18051 L_1805 L_05041 L_0504 L_0403 L_0302 L_0201 L_0108"/>
    </vehicle>
    <vehicle id="IN_19_m_1.15" type="motor" depart="121.00" departLane="best">
        <route edges="L_1905 L_05041 L_0504 L_0403 L_0302 L_0201 L_0108"/>
    </vehicle>
    <vehicle id="IN_11_m_1.7" type="motor" depart="123.00" departLane="best">
        <route edges="L_1106 L_0602 L_0203 L_03041 L_0304 L_04051 L_04052 L_0520"/>
    </vehicle>
    <vehicle id="IN_11_m_1.8" type="motor" depart="125.00" departLane="best">
        <route edges="L_1106 L_0612"/>
    </vehicle>
    <vehicle id="IN_19_m_1.16" type="motor" depart="126.00" departLane="best">
        <route edges="L_1905 L_05041 L_0504 L_0414"/>
    </vehicle>
    <vehicle id="IN_08_m_1.6" type="motor" depart="128.00" departLane="best">
        <route edges="L_0801 L_0102 L_0203 L_03041 L_0304 L_04051 L_04052 L_0519"/>
    </vehicle>
    <vehicle id="IN_19_m_1.17" type="motor" depart="128.00" departLane="best">
        <route edges="L_1905 L_05041 L_0504 L_0403 L_0302 L_0201 L_0108"/>
    </vehicle>
    <vehicle id="IN_08_m_1.7" type="motor" depart="129.00" departLane="best">
        <route edges="L_0801 L_0102 L_0203 L_03041 L_0304 L_04051 L_04052 L_0519"/>
    </vehicle>
    <vehicle id="IN_08_m_1.8" type="motor" depart="130.00" departLane="best">
        <route edges="L_0801 L_0102 L_0203 L_03041 L_0304 L_04051 L_04052 L_0519"/>
    </vehicle>
    <vehicle id="IN_11_m_1.9" type="motor" depart="133.00" departLane="best">
        <route edges="L_1106 L_0612"/>
    </vehicle>
    <vehicle id="IN_19_m_1.18" type="motor" depart="133.00" departLane="best">
        <route edges="L_1905 L_05041 L_0504 L_0403 L_0302 L_0201 L_0108"/>
    </vehicle>
    <vehicle id="IN_19_m_1.19" type="motor" depart="142.00" departLane="best">
        <route edges="L_1905 L_0518"/>
    </vehicle>
    <vehicle id="IN_14_m_1.7" type="motor" depart="143.00" departLane="best">
        <route edges="L_14041 L_1404 L_0407 L_0716"/>
    </vehicle>
    <vehicle id="IN_19_m_1.20" type="motor" depart="143.00" departLane="best">
        <route edges="L_1905 L_05041 L_0504 L_0414"/>
    </vehicle>
    <vehicle id="IN_11_m_1.10" type="motor" depart="149.00" departLane="best">
        <route edges="L_1106 L_0602 L_0201 L_0108"/>
    </vehicle>
    <vehicle id="IN_08_m_1.9" type="motor" depart="152.00" departLane="best">
        <route edges="L_0801 L_0102 L_0206 L_0611"/>
    </vehicle>
    <vehicle id="IN_18_m_1.6" type="motor" depart="154.00" departLane="best">
        <route edges="L_18051 L_1805 L_0520"/>
    </vehicle>
    <vehicle id="IN_11_m_1.11" type="motor" depart="158.00" departLane="best">
        <route edges="L_1106 L_0602 L_0201 L_0108"/>
    </vehicle>
    <vehicle id="IN_19_m_1.21" type="motor" depart="158.00" departLane="best">
        <route edges="L_1905 L_0518"/>
    </vehicle>
    <vehicle id="IN_08_m_1.10" type="motor" depart="160.00" departLane="best">
        <route edges="L_0801 L_0102 L_0203 L_03041 L_0304 L_04051 L_04052 L_0519"/>
    </vehicle>
    <vehicle id="IN_15_m_1.1" type="motor" depart="162.00" departLane="best">
        <route edges="L_1507 L_0716"/>
    </vehicle>
    <vehicle id="IN_19_m_1.22" type="motor" depart="164.00" departLane="best">
        <route edges="L_1905 L_05041 L_0504 L_0403 L_0302 L_0201 L_0108"/>
    </vehicle>
    <vehicle id="IN_19_m_1.23" type="motor" depart="165.00" departLane="best">
        <route edges="L_1905 L_05041 L_0504 L_0403 L_0302 L_0201 L_0108"/>
    </vehicle>
    <vehicle id="IN_15_m_1.2" type="motor" depart="167.00" departLane="best">
        <route edges="L_1507 L_0716"/>
    </vehicle>
    <vehicle id="IN_19_m_1.24" type="motor" depart="167.00" departLane="best">
        <route edges="L_1905 L_05041 L_0504 L_0403 L_0302 L_0201 L_0108"/>
    </vehicle>
    <vehicle id="IN_11_m_1.12" type="motor" depart="170.00" departLane="best">
        <route edges="L_1106 L_0602 L_0201 L_0108"/>
    </vehicle>
    <vehicle id="IN_14_m_1.8" type="motor" depart="171.00" departLane="best">
        <route edges="L_14041 L_1404 L_0407 L_0716"/>
    </vehicle>
    <vehicle id="IN_19_m_1.25" type="motor" depart="174.00" departLane="best">
        <route edges="L_1905 L_05041 L_0504 L_0403 L_0302 L_0201 L_0108"/>
    </vehicle>
    <vehicle id="IN_14_m_1.9" type="motor" depart="181.00" departLane="best">
        <route edges="L_14041 L_1404 L_04051 L_04052 L_0519"/>
    </vehicle>
    <vehicle id="IN_18_m_1.7" type="motor" depart="183.00" departLane="best">
        <route edges="L_18051 L_1805 L_0520"/>
    </vehicle>
    <vehicle id="IN_19_m_1.26" type="motor" depart="183.00" departLane="best">
        <route edges="L_1905 L_05041 L_0504 L_0403 L_0302 L_0201 L_0108"/>
    </vehicle>
    <vehicle id="IN_19_m_1.27" type="motor" depart="184.00" departLane="best">
        <route edges="L_1905 L_0518"/>
    </vehicle>
    <vehicle id="IN_16_m_1.10" type="motor" depart="186.00" departLane="best">
        <route edges="L_1607 L_0704 L_0403 L_0302 L_0206 L_0621"/>
    </vehicle>
    <vehicle id="IN_08_m_1.11" type="motor" depart="187.00" departLane="best">
        <route edges="L_0801 L_0102 L_0203 L_03041 L_0304 L_04051 L_04052 L_0519"/>
    </vehicle>
    <vehicle id="IN_16_m_1.11" type="motor" depart="187.00" departLane="best">
        <route edges="L_1607 L_0704 L_0414"/>
    </vehicle>
    <vehicle id="IN_14_m_1.10" type="motor" depart="188.00" departLane="best">
        <route edges="L_14041 L_1404 L_0407 L_0716"/>
    </vehicle>
    <vehicle id="IN_11_m_1.13" type="motor" depart="189.00" departLane="best">
        <route edges="L_1106 L_0602 L_0201 L_0108"/>
    </vehicle>
    <vehicle id="IN_14_m_1.11" type="motor" depart="189.00" departLane="best">
        <route edges="L_14041 L_1404 L_0407 L_0715"/>
    </vehicle>
    <vehicle id="IN_19_m_1.28" type="motor" depart="189.00" departLane="best">
        <route edges="L_1905 L_05041 L_0504 L_0414"/>
    </vehicle>
    <vehicle id="IN_08_m_1.12" type="motor" depart="193.00" departLane="best">
        <route edges="L_0801 L_0102 L_0203 L_03041 L_0304 L_04051 L_04052 L_0519"/>
    </vehicle>
    <vehicle id="IN_11_m_1.14" type="motor" depart="195.00" departLane="best">
        <route edges="L_1106 L_0602 L_0210"/>
    </vehicle>
    <vehicle id="IN_15_m_1.3" type="motor" depart="196.00" departLane="best">
        <route edges="L_1507 L_0716"/>
    </vehicle>
    <vehicle id="IN_19_m_1.29" type="motor" depart="197.00" departLane="best">
        <route edges="L_1905 L_05041 L_0504 L_0403 L_0302 L_0201 L_0108"/>
    </vehicle>
    <vehicle id="IN_08_m_1.13" type="motor" depart="198.00" departLane="best">
        <route edges="L_0801 L_0102 L_0203 L_03041 L_0304 L_04051 L_04052 L_0520"/>
    </vehicle>
    <vehicle id="IN_08_m_1.14" type="motor" depart="200.00" departLane="best">
        <route edges="L_0801 L_0102 L_0203 L_03041 L_0304 L_04051 L_04052 L_0520"/>
    </vehicle>
    <vehicle id="IN_14_m_1.12" type="motor" depart="200.00" departLane="best">
        <route edges="L_14041 L_1404 L_04051 L_04052 L_0519"/>
    </vehicle>
    <vehicle id="IN_16_m_1.12" type="motor" depart="203.00" departLane="best">
        <route edges="L_1607 L_0704 L_0414"/>
    </vehicle>
    <vehicle id="IN_18_m_1.8" type="motor" depart="204.00" departLane="best">
        <route edges="L_18051 L_1805 L_0520"/>
    </vehicle>
    <vehicle id="IN_14_m_1.13" type="motor" depart="211.00" departLane="best">
        <route edges="L_14041 L_1404 L_0407 L_0716"/>
    </vehicle>
    <vehicle id="IN_10_m_1.0" type="motor" depart="212.00" departLane="best">
        <route edges="L_1002 L_0206 L_0611"/>
    </vehicle>
    <vehicle id="IN_19_m_1.30" type="motor" depart="212.00" departLane="best">
        <route edges="L_1905 L_05041 L_0504 L_0403 L_0302 L_0201 L_0108"/>
    </vehicle>
    <vehicle id="IN_08_m_1.15" type="motor" depart="213.00" departLane="best">
        <route edges="L_0801 L_0102 L_0203 L_03041 L_0304 L_04051 L_04052 L_0519"/>
    </vehicle>
    <vehicle id="IN_19_m_1.31" type="motor" depart="216.00" departLane="best">
        <route edges="L_1905 L_0518"/>
    </vehicle>
    <vehicle id="IN_10_m_1.1" type="motor" depart="217.00" departLane="best">
        <route edges="L_1002 L_0201 L_0108"/>
    </vehicle>
    <vehicle id="IN_16_m_1.13" type="motor" depart="225.00" departLane="best">
        <route edges="L_1607 L_0704 L_0414"/>
    </vehicle>
    <vehicle id="IN_16_m_1.14" type="motor" depart="227.00" departLane="best">
        <route edges="L_1607 L_0704 L_0414"/>
    </vehicle>
    <vehicle id="IN_18_m_1.9" type="motor" depart="227.00" departLane="best">
        <route edges="L_18051 L_1805 L_0520"/>
    </vehicle>
    <vehicle id="IN_08_m_1.16" type="motor" depart="232.00" departLane="best">
        <route edges="L_0801 L_0102 L_0203 L_03041 L_0304 L_04051 L_04052 L_0519"/>
    </vehicle>
    <vehicle id="IN_16_m_1.15" type="motor" depart="233.00" departLane="best">
        <route edges="L_1607 L_0715"/>
    </vehicle>
    <vehicle id="IN_09_m_1.0" type="motor" depart="242.00" departLane="best">
        <route edges="L_0901 L_0102 L_0203 L_03041 L_0304 L_04051 L_04052 L_0519"/>
    </vehicle>
    <vehicle id="IN_19_m_1.32" type="motor" depart="242.00" departLane="best">
        <route edges="L_1905 L_05041 L_0504 L_0403 L_0302 L_0201 L_0108"/>
    </vehicle>
    <vehicle id="IN_08_m_1.17" type="motor" depart="245.00" departLane="best">
        <route edges="L_0801 L_0102 L_0203 L_03041 L_0304 L_04051 L_04052 L_0519"/>
    </vehicle>
    <vehicle id="IN_08_m_1.18" type="motor" depart="250.00" departLane="best">
        <route edges="L_0801 L_0102 L_0203 L_03041 L_0304 L_04051 L_04052 L_0519"/>
    </vehicle>
    <vehicle id="IN_18_m_1.10" type="motor" depart="250.00" departLane="best">
        <route edges="L_18051 L_1805 L_0520"/>
    </vehicle>
    <vehicle id="IN_14_m_1.14" type="motor" depart="253.00" departLane="best">
        <route edges="L_14041 L_1404 L_0407 L_0716"/>
    </vehicle>
    <vehicle id="IN_19_m_1.33" type="motor" depart="253.00" departLane="best">
        <route edges="L_1905 L_05041 L_0504 L_0414"/>
    </vehicle>
    <vehicle id="IN_19_m_1.34" type="motor" depart="256.00" departLane="best">
        <route edges="L_1905 L_05041 L_0504 L_0403 L_0302 L_0201 L_0108"/>
    </vehicle>
    <vehicle id="IN_16_m_1.16" type="motor" depart="259.00" departLane="best">
        <route edges="L_1607 L_0704 L_0414"/>
    </vehicle>
    <vehicle id="IN_19_m_1.35" type="motor" depart="259.00" departLane="best">
        <route edges="L_1905 L_05041 L_0504 L_0414"/>
    </vehicle>
    <vehicle id="IN_19_m_1.36" type="motor" depart="262.00" departLane="best">
        <route edges="L_1905 L_0518"/>
    </vehicle>
    <vehicle id="IN_11_m_1.15" type="motor" depart="265.00" departLane="best">
        <route edges="L_1106 L_0602 L_0203 L_03041 L_0304 L_04051 L_04052 L_0519"/>
    </vehicle>
    <vehicle id="IN_14_m_1.15" type="motor" depart="265.00" departLane="best">
        <route edges="L_14041 L_1404 L_0407 L_0716"/>
    </vehicle>
    <vehicle id="IN_11_m_1.16" type="motor" depart="268.00" departLane="best">
        <route edges="L_1106 L_0602 L_0201 L_0108"/>
    </vehicle>
    <vehicle id="IN_14_m_1.16" type="motor" depart="269.00" departLane="best">
        <route edges="L_14041 L_1404 L_0407 L_0716"/>
    </vehicle>
    <vehicle id="IN_19_m_1.37" type="motor" depart="270.00" departLane="best">
        <route edges="L_1905 L_05041 L_0504 L_0403 L_0302 L_0201 L_0108"/>
    </vehicle>
    <vehicle id="IN_14_m_1.17" type="motor" depart="271.00" departLane="best">
        <route edges="L_14041 L_1404 L_0407 L_0716"/>
    </vehicle>
    <vehicle id="IN_16_m_1.17" type="motor" depart="272.00" departLane="best">
        <route edges="L_1607 L_0704 L_0403 L_0302 L_0201 L_0108"/>
    </vehicle>
    <vehicle id="IN_11_m_1.17" type="motor" depart="278.00" departLane="best">
        <route edges="L_1106 L_0602 L_0203 L_03041 L_0304 L_04051 L_04052 L_0519"/>
    </vehicle>
    <vehicle id="IN_15_m_1.4" type="motor" depart="278.00" departLane="best">
        <route edges="L_1507 L_0716"/>
    </vehicle>
    <vehicle id="IN_10_m_1.2" type="motor" depart="279.00" departLane="best">
        <route edges="L_1002 L_0203 L_03041 L_0304 L_04051 L_04052 L_0519"/>
    </vehicle>
    <vehicle id="IN_19_m_1.38" type="motor" depart="280.00" departLane="best">
        <route edges="L_1905 L_05041 L_0504 L_0403 L_0302 L_0201 L_0108"/>
    </vehicle>
    <vehicle id="IN_19_m_1.39" type="motor" depart="282.00" departLane="best">
        <route edges="L_1905 L_05041 L_0504 L_0403 L_0302 L_0201 L_0108"/>
    </vehicle>
    <vehicle id="IN_14_m_1.18" type="motor" depart="285.00" departLane="best">
        <route edges="L_14041 L_1404 L_0403 L_0302 L_0201 L_0108"/>
    </vehicle>
    <vehicle id="IN_14_m_1.19" type="motor" depart="291.00" departLane="best">
        <route edges="L_14041 L_1404 L_0407 L_0716"/>
    </vehicle>
    <vehicle id="IN_16_m_1.18" type="motor" depart="291.00" departLane="best">
        <route edges="L_1607 L_0704 L_0414"/>
    </vehicle>
    <vehicle id="IN_08_m_1.19" type="motor" depart="292.00" departLane="best">
        <route edges="L_0801 L_0102 L_0203 L_03041 L_0304 L_04051 L_04052 L_0519"/>
    </vehicle>
    <vehicle id="IN_16_m_1.19" type="motor" depart="292.00" departLane="best">
        <route edges="L_1607 L_0715"/>
    </vehicle>
    <vehicle id="IN_08_m_1.20" type="motor" depart="293.00" departLane="best">
        <route edges="L_0801 L_0102 L_0203 L_03041 L_0304 L_04051 L_04052 L_0519"/>
    </vehicle>
    <vehicle id="IN_11_m_1.18" type="motor" depart="298.00" departLane="best">
        <route edges="L_1106 L_0602 L_0201 L_0108"/>
    </vehicle>
    <vehicle id="IN_18_m_1.11" type="motor" depart="301.00" departLane="best">
        <route edges="L_18051 L_1805 L_0520"/>
    </vehicle>
    <vehicle id="IN_19_m_1.40" type="motor" depart="308.00" departLane="best">
        <route edges="L_1905 L_05041 L_0504 L_0414"/>
    </vehicle>
    <vehicle id="IN_19_m_1.41" type="motor" depart="309.00" departLane="best">
        <route edges="L_1905 L_05041 L_0504 L_0403 L_0302 L_0201 L_0108"/>
    </vehicle>
    <vehicle id="IN_16_m_1.20" type="motor" depart="310.00" departLane="best">
        <route edges="L_1607 L_0704 L_0414"/>
    </vehicle>
    <vehicle id="IN_16_m_1.21" type="motor" depart="313.00" departLane="best">
        <route edges="L_1607 L_0715"/>
    </vehicle>
    <vehicle id="IN_18_m_1.12" type="motor" depart="313.00" departLane="best">
        <route edges="L_18051 L_1805 L_0520"/>
    </vehicle>
    <vehicle id="IN_19_m_1.42" type="motor" depart="313.00" departLane="best">
        <route edges="L_1905 L_0518"/>
    </vehicle>
    <vehicle id="IN_19_m_1.43" type="motor" depart="314.00" departLane="best">
        <route edges="L_1905 L_0518"/>
    </vehicle>
    <vehicle id="IN_16_m_1.22" type="motor" depart="315.00" departLane="best">
        <route edges="L_1607 L_0704 L_0414"/>
    </vehicle>
    <vehicle id="IN_08_m_1.21" type="motor" depart="317.00" departLane="best">
        <route edges="L_0801 L_0102 L_0203 L_03041 L_0304 L_04051 L_04052 L_0519"/>
    </vehicle>
    <vehicle id="IN_19_m_1.44" type="motor" depart="321.00" departLane="best">
        <route edges="L_1905 L_05041 L_0504 L_0403 L_0302 L_0201 L_0108"/>
    </vehicle>
    <vehicle id="IN_14_m_1.20" type="motor" depart="327.00" departLane="best">
        <route edges="L_14041 L_1404 L_0407 L_0716"/>
    </vehicle>
    <vehicle id="IN_19_m_1.45" type="motor" depart="327.00" departLane="best">
        <route edges="L_1905 L_05041 L_0504 L_0403 L_0302 L_0201 L_0108"/>
    </vehicle>
    <vehicle id="IN_14_m_1.21" type="motor" depart="328.00" departLane="best">
        <route edges="L_14041 L_1404 L_0407 L_0716"/>
    </vehicle>
    <vehicle id="IN_19_m_1.46" type="motor" depart="328.00" departLane="best">
        <route edges="L_1905 L_05041 L_0504 L_0403 L_0302 L_0201 L_0108"/>
    </vehicle>
    <vehicle id="IN_11_m_1.19" type="motor" depart="330.00" departLane="best">
        <route edges="L_1106 L_0602 L_0201 L_0108"/>
    </vehicle>
    <vehicle id="IN_08_m_1.22" type="motor" depart="331.00" departLane="best">
        <route edges="L_0801 L_0102 L_0203 L_03041 L_0304 L_04051 L_04052 L_0520"/>
    </vehicle>
    <vehicle id="IN_08_m_1.23" type="motor" depart="333.00" departLane="best">
        <route edges="L_0801 L_0102 L_0203 L_03041 L_0304 L_04051 L_04052 L_0519"/>
    </vehicle>
    <vehicle id="IN_14_m_1.22" type="motor" depart="333.00" departLane="best">
        <route edges="L_14041 L_1404 L_0407 L_0716"/>
    </vehicle>
    <vehicle id="IN_08_m_1.24" type="motor" depart="334.00" departLane="best">
        <route edges="L_0801 L_0102 L_0203 L_03041 L_0304 L_04051 L_04052 L_0520"/>
    </vehicle>
    <vehicle id="IN_08_m_1.25" type="motor" depart="337.00" departLane="best">
        <route edges="L_0801 L_0102 L_0203 L_03041 L_0304 L_04051 L_04052 L_0519"/>
    </vehicle>
    <vehicle id="IN_08_m_1.26" type="motor" depart="340.00" departLane="best">
        <route edges="L_0801 L_0102 L_0203 L_03041 L_0304 L_04051 L_04052 L_0520"/>
    </vehicle>
    <vehicle id="IN_18_m_1.13" type="motor" depart="341.00" departLane="best">
        <route edges="L_18051 L_1805 L_0520"/>
    </vehicle>
    <vehicle id="IN_19_m_1.47" type="motor" depart="341.00" departLane="best">
        <route edges="L_1905 L_05041 L_0504 L_0414"/>
    </vehicle>
    <vehicle id="IN_19_m_1.48" type="motor" depart="342.00" departLane="best">
        <route edges="L_1905 L_05041 L_0504 L_0403 L_0302 L_0206 L_0611"/>
    </vehicle>
    <vehicle id="IN_16_m_1.23" type="motor" depart="343.00" departLane="best">
        <route edges="L_1607 L_0704 L_0414"/>
    </vehicle>
    <vehicle id="IN_19_m_1.49" type="motor" depart="343.00" departLane="best">
        <route edges="L_1905 L_05041 L_0504 L_0414"/>
    </vehicle>
    <vehicle id="IN_08_m_1.27" type="motor" depart="344.00" departLane="best">
        <route edges="L_0801 L_0102 L_0206 L_0611"/>
    </vehicle>
    <vehicle id="IN_08_m_1.28" type="motor" depart="346.00" departLane="best">
        <route edges="L_0801 L_0102 L_0203 L_03041 L_0304 L_04051 L_04052 L_0519"/>
    </vehicle>
    <vehicle id="IN_08_m_1.29" type="motor" depart="348.00" departLane="best">
        <route edges="L_0801 L_0102 L_0203 L_03041 L_0304 L_04051 L_04052 L_0519"/>
    </vehicle>
    <vehicle id="IN_14_m_1.23" type="motor" depart="351.00" departLane="best">
        <route edges="L_14041 L_1404 L_0407 L_0716"/>
    </vehicle>
    <vehicle id="IN_19_m_1.50" type="motor" depart="353.00" departLane="best">
        <route edges="L_1905 L_05041 L_0504 L_0403 L_0302 L_0201 L_0108"/>
    </vehicle>
    <vehicle id="IN_08_m_1.30" type="motor" depart="355.00" departLane="best">
        <route edges="L_0801 L_0102 L_0203 L_03041 L_0304 L_04051 L_04052 L_0520"/>
    </vehicle>
    <vehicle id="IN_19_m_1.51" type="motor" depart="356.00" departLane="best">
        <route edges="L_1905 L_0518"/>
    </vehicle>
    <vehicle id="IN_19_m_1.52" type="motor" depart="358.00" departLane="best">
        <route edges="L_1905 L_05041 L_0504 L_0403 L_0302 L_0201 L_0108"/>
    </vehicle>
    <vehicle id="IN_16_m_1.24" type="motor" depart="360.00" departLane="best">
        <route edges="L_1607 L_0704 L_0414"/>
    </vehicle>
    <vehicle id="IN_19_m_1.53" type="motor" depart="361.00" departLane="best">
        <route edges="L_1905 L_05041 L_0504 L_0403 L_0302 L_0201 L_0108"/>
    </vehicle>
    <vehicle id="IN_18_m_1.14" type="motor" depart="367.00" departLane="best">
        <route edges="L_18051 L_1805 L_0520"/>
    </vehicle>
    <vehicle id="IN_19_m_1.54" type="motor" depart="368.00" departLane="best">
        <route edges="L_1905 L_05041 L_0504 L_0403 L_0302 L_0201 L_0108"/>
    </vehicle>
    <vehicle id="IN_18_m_1.15" type="motor" depart="370.00" departLane="best">
        <route edges="L_18051 L_1805 L_0520"/>
    </vehicle>
    <vehicle id="IN_14_m_1.24" type="motor" depart="371.00" departLane="best">
        <route edges="L_14041 L_1404 L_0407 L_0716"/>
    </vehicle>
    <vehicle id="IN_16_m_1.25" type="motor" depart="382.00" departLane="best">
        <route edges="L_1607 L_0704 L_0403 L_0302 L_0201 L_0108"/>
    </vehicle>