<?xml version="1.0" encoding="UTF-8"?>

<!-- generated on 2023-07-22 15:22:00 by Eclipse SUMO jtrrouter Version 1.16.0
<configuration xmlns:xsi="http://www.w3.org/2001/XMLSchema-instance" xsi:noNamespaceSchemaLocation="http://sumo.dlr.de/xsd/jtrrouterConfiguration.xsd">

    <input>
        <net-file value="D:\02_運研所AI號控\建模檔\TEST_V2\SUMO_IOT_Taipei_testing\B1\sumo_Taipei_AM\Taipei_AM.net.xml"/>
        <route-files value="D:\02_運研所AI號控\建模檔\TEST_V2\SUMO_IOT_Taipei_testing\B1\sumo_Taipei_AM\router_AM_c.flowdef.xml"/>
        <turn-ratio-files value="D:\02_運研所AI號控\建模檔\TEST_V2\SUMO_IOT_Taipei_testing\B1\sumo_Taipei_AM\router_AM_c.turndef.xml"/>
    </input>

    <output>
        <output-file value="D:\02_運研所AI號控\建模檔\TEST_V2\SUMO_IOT_Taipei_testing\B1\sumo_Taipei_AM\router_AM_c.rou.xml"/>
    </output>

    <time>
        <begin value="0"/>
        <end value="10800"/>
    </time>

    <random_number>
        <seed value="4310"/>
    </random_number>

</configuration>
-->

<routes xmlns:xsi="http://www.w3.org/2001/XMLSchema-instance" xsi:noNamespaceSchemaLocation="http://sumo.dlr.de/xsd/routes_file.xsd">
    <vType id="car" length="5.50" minGap="0.50" vClass="passenger" accel="3.5" decel="3.0" emergencyDecel="7.5" sigma="0.4"/>
    <vehicle id="IN_16_c_1.0" type="car" depart="2.00" departLane="best">
        <route edges="L_1607 L_0704 L_0403 L_0302 L_0201 L_0108"/>
    </vehicle>
    <vehicle id="IN_16_c_1.1" type="car" depart="3.00" departLane="best">
        <route edges="L_1607 L_0704 L_04051 L_04052 L_0519"/>
    </vehicle>
    <vehicle id="IN_19_c_1.0" type="car" depart="4.00" departLane="best">
        <route edges="L_1905 L_0518"/>
    </vehicle>
    <vehicle id="IN_19_c_1.1" type="car" depart="7.00" departLane="best">
        <route edges="L_1905 L_0518"/>
    </vehicle>
    <vehicle id="IN_19_c_1.2" type="car" depart="11.00" departLane="best">
        <route edges="L_1905 L_0518"/>
    </vehicle>
    <vehicle id="IN_08_c_1.0" type="car" depart="12.00" departLane="best">
        <route edges="L_0801 L_0102 L_0203 L_03041 L_0304 L_04051 L_04052 L_0519"/>
    </vehicle>
    <vehicle id="IN_14_c_1.0" type="car" depart="12.00" departLane="best">
        <route edges="L_14041 L_1404 L_0407 L_0716"/>
    </vehicle>
    <vehicle id="IN_08_c_1.1" type="car" depart="15.00" departLane="best">
        <route edges="L_0801 L_0102 L_0203 L_03041 L_0304 L_04051 L_04052 L_0519"/>
    </vehicle>
    <vehicle id="IN_19_c_1.3" type="car" depart="16.00" departLane="best">
        <route edges="L_1905 L_05041 L_0504 L_0403 L_0302 L_0201 L_0108"/>
    </vehicle>
    <vehicle id="IN_16_c_1.2" type="car" depart="17.00" departLane="best">
        <route edges="L_1607 L_0704 L_04051 L_04052 L_0519"/>
    </vehicle>
    <vehicle id="IN_18_c_1.0" type="car" depart="17.00" departLane="best">
        <route edges="L_18051 L_1805 L_0519"/>
    </vehicle>
    <vehicle id="IN_18_c_1.1" type="car" depart="18.00" departLane="best">
        <route edges="L_18051 L_1805 L_0519"/>
    </vehicle>
    <vehicle id="IN_08_c_1.2" type="car" depart="19.00" departLane="best">
        <route edges="L_0801 L_0102 L_0206 L_0611"/>
    </vehicle>
    <vehicle id="IN_14_c_1.1" type="car" depart="19.00" departLane="best">
        <route edges="L_14041 L_1404 L_04051 L_04052 L_0519"/>
    </vehicle>
    <vehicle id="IN_18_c_1.2" type="car" depart="19.00" departLane="best">
        <route edges="L_18051 L_1805 L_0519"/>
    </vehicle>
    <vehicle id="IN_15_c_1.0" type="car" depart="20.00" departLane="best">
        <route edges="L_1507 L_0716"/>
    </vehicle>
    <vehicle id="IN_11_c_1.0" type="car" depart="22.00" departLane="best">
        <route edges="L_1106 L_0602 L_0203 L_03041 L_0304 L_04051 L_04052 L_0519"/>
    </vehicle>
    <vehicle id="IN_08_c_1.3" type="car" depart="24.00" departLane="best">
        <route edges="L_0801 L_0102 L_0203 L_03041 L_0304 L_04051 L_04052 L_0520"/>
    </vehicle>
    <vehicle id="IN_16_c_1.3" type="car" depart="24.00" departLane="best">
        <route edges="L_1607 L_0704 L_0414"/>
    </vehicle>
    <vehicle id="IN_16_c_1.4" type="car" depart="25.00" departLane="best">
        <route edges="L_1607 L_0704 L_0414"/>
    </vehicle>
    <vehicle id="IN_18_c_1.3" type="car" depart="25.00" departLane="best">
        <route edges="L_18051 L_1805 L_05041 L_0504 L_0403 L_0302 L_0201 L_0108"/>
    </vehicle>
    <vehicle id="IN_19_c_1.4" type="car" depart="25.00" departLane="best">
        <route edges="L_1905 L_05041 L_0504 L_0403 L_0302 L_0201 L_0108"/>
    </vehicle>
    <vehicle id="IN_14_c_1.2" type="car" depart="27.00" departLane="best">
        <route edges="L_14041 L_1404 L_0407 L_0715"/>
    </vehicle>
    <vehicle id="IN_11_c_1.1" type="car" depart="28.00" departLane="best">
        <route edges="L_1106 L_0602 L_0201 L_0108"/>
    </vehicle>
    <vehicle id="IN_19_c_1.5" type="car" depart="30.00" departLane="best">
        <route edges="L_1905 L_0518"/>
    </vehicle>
    <vehicle id="IN_16_c_1.5" type="car" depart="33.00" departLane="best">
        <route edges="L_1607 L_0704 L_04051 L_04052 L_0519"/>
    </vehicle>
    <vehicle id="IN_11_c_1.2" type="car" depart="39.00" departLane="best">
        <route edges="L_1106 L_0602 L_0203 L_03041 L_0304 L_04051 L_04052 L_0519"/>
    </vehicle>
    <vehicle id="IN_12_c_1.0" type="car" depart="41.00" departLane="best">
        <route edges="L_1206 L_0602 L_0203 L_03041 L_0304 L_04051 L_04052 L_0519"/>
    </vehicle>
    <vehicle id="IN_18_c_1.4" type="car" depart="43.00" departLane="best">
        <route edges="L_18051 L_1805 L_0519"/>
    </vehicle>
    <vehicle id="IN_08_c_1.4" type="car" depart="44.00" departLane="best">
        <route edges="L_0801 L_0102 L_0203 L_03041 L_0304 L_0407 L_0716"/>
    </vehicle>
    <vehicle id="IN_18_c_1.5" type="car" depart="45.00" departLane="best">
        <route edges="L_18051 L_1805 L_0519"/>
    </vehicle>
    <vehicle id="IN_16_c_1.6" type="car" depart="47.00" departLane="best">
        <route edges="L_1607 L_0704 L_0414"/>
    </vehicle>
    <vehicle id="IN_18_c_1.6" type="car" depart="49.00" departLane="best">
        <route edges="L_18051 L_1805 L_0519"/>
    </vehicle>
    <vehicle id="IN_19_c_1.6" type="car" depart="49.00" departLane="best">
        <route edges="L_1905 L_0518"/>
    </vehicle>
    <vehicle id="IN_18_c_1.7" type="car" depart="50.00" departLane="best">
        <route edges="L_18051 L_1805 L_0520"/>
    </vehicle>
    <vehicle id="IN_18_c_1.8" type="car" depart="51.00" departLane="best">
        <route edges="L_18051 L_1805 L_0519"/>
    </vehicle>
    <vehicle id="IN_14_c_1.3" type="car" depart="52.00" departLane="best">
        <route edges="L_14041 L_1404 L_0407 L_0716"/>
    </vehicle>
    <vehicle id="IN_18_c_1.9" type="car" depart="57.00" departLane="best">
        <route edges="L_18051 L_1805 L_0519"/>
    </vehicle>
    <vehicle id="IN_11_c_1.3" type="car" depart="58.00" departLane="best">
        <route edges="L_1106 L_0602 L_0201 L_0108"/>
    </vehicle>
    <vehicle id="IN_16_c_1.7" type="car" depart="61.00" departLane="best">
        <route edges="L_1607 L_0704 L_0414"/>
    </vehicle>
    <vehicle id="IN_11_c_1.4" type="car" depart="62.00" departLane="best">
        <route edges="L_1106 L_0602 L_0201 L_0108"/>
    </vehicle>
    <vehicle id="IN_19_c_1.7" type="car" depart="62.00" departLane="best">
        <route edges="L_1905 L_0518"/>
    </vehicle>
    <vehicle id="IN_08_c_1.5" type="car" depart="65.00" departLane="best">
        <route edges="L_0801 L_0102 L_0203 L_03041 L_0304 L_04051 L_04052 L_0519"/>
    </vehicle>
    <vehicle id="IN_11_c_1.5" type="car" depart="66.00" departLane="best">
        <route edges="L_1106 L_0612"/>
    </vehicle>
    <vehicle id="IN_19_c_1.8" type="car" depart="69.00" departLane="best">
        <route edges="L_1905 L_05041 L_0504 L_0403 L_0302 L_0201 L_0108"/>
    </vehicle>
    <vehicle id="IN_08_c_1.6" type="car" depart="70.00" departLane="best">
        <route edges="L_0801 L_0102 L_0203 L_03041 L_0304 L_04051 L_04052 L_0519"/>
    </vehicle>
    <vehicle id="IN_18_c_1.10" type="car" depart="71.00" departLane="best">
        <route edges="L_18051 L_1805 L_0519"/>
    </vehicle>
    <vehicle id="IN_08_c_1.7" type="car" depart="72.00" departLane="best">
        <route edges="L_0801 L_0102 L_0203 L_03041 L_0304 L_04051 L_04052 L_0520"/>
    </vehicle>
    <vehicle id="IN_08_c_1.8" type="car" depart="73.00" departLane="best">
        <route edges="L_0801 L_0102 L_0206 L_0612"/>
    </vehicle>
    <vehicle id="IN_16_c_1.8" type="car" depart="75.00" departLane="best">
        <route edges="L_1607 L_0704 L_0414"/>
    </vehicle>
    <vehicle id="IN_11_c_1.6" type="car" depart="77.00" departLane="best">
        <route edges="L_1106 L_0602 L_0201 L_0108"/>
    </vehicle>
    <vehicle id="IN_08_c_1.9" type="car" depart="80.00" departLane="best">
        <route edges="L_0801 L_0102 L_0203 L_03041 L_0304 L_04051 L_04052 L_0520"/>
    </vehicle>
    <vehicle id="IN_19_c_1.9" type="car" depart="81.00" departLane="best">
        <route edges="L_1905 L_05041 L_0504 L_0403 L_0302 L_0201 L_0108"/>
    </vehicle>
    <vehicle id="IN_16_c_1.9" type="car" depart="85.00" departLane="best">
        <route edges="L_1607 L_0704 L_0403 L_0302 L_0201 L_0108"/>
    </vehicle>
    <vehicle id="IN_19_c_1.10" type="car" depart="85.00" departLane="best">
        <route edges="L_1905 L_0518"/>
    </vehicle>
    <vehicle id="IN_12_c_1.1" type="car" depart="87.00" departLane="best">
        <route edges="L_1206 L_0611"/>
    </vehicle>
    <vehicle id="IN_19_c_1.11" type="car" depart="87.00" departLane="best">
        <route edges="L_1905 L_0518"/>
    </vehicle>
    <vehicle id="IN_19_c_1.12" type="car" depart="88.00" departLane="best">
        <route edges="L_1905 L_05041 L_0504 L_0403 L_0302 L_0201 L_0108"/>
    </vehicle>
    <vehicle id="IN_14_c_1.4" type="car" depart="89.00" departLane="best">
        <route edges="L_14041 L_1404 L_0407 L_0716"/>
    </vehicle>
    <vehicle id="IN_18_c_1.11" type="car" depart="89.00" departLane="best">
        <route edges="L_18051 L_1805 L_0519"/>
    </vehicle>
    <vehicle id="IN_18_c_1.12" type="car" depart="91.00" departLane="best">
        <route edges="L_18051 L_1805 L_0519"/>
    </vehicle>
    <vehicle id="IN_08_c_1.10" type="car" depart="93.00" departLane="best">
        <route edges="L_0801 L_0102 L_0203 L_03041 L_0304 L_0407 L_0716"/>
    </vehicle>
    <vehicle id="IN_14_c_1.5" type="car" depart="95.00" departLane="best">
        <route edges="L_14041 L_1404 L_0407 L_0716"/>
    </vehicle>
    <vehicle id="IN_15_c_1.1" type="car" depart="95.00" departLane="best">
        <route edges="L_1507 L_0716"/>
    </vehicle>
    <vehicle id="IN_16_c_1.10" type="car" depart="95.00" departLane="best">
        <route edges="L_1607 L_0704 L_0403 L_0302 L_0201 L_0108"/>
    </vehicle>
    <vehicle id="IN_18_c_1.13" type="car" depart="96.00" departLane="best">
        <route edges="L_18051 L_1805 L_0520"/>
    </vehicle>
    <vehicle id="IN_19_c_1.13" type="car" depart="101.00" departLane="best">
        <route edges="L_1905 L_05041 L_0504 L_0414"/>
    </vehicle>
    <vehicle id="IN_18_c_1.14" type="car" depart="102.00" departLane="best">
        <route edges="L_18051 L_1805 L_0520"/>
    </vehicle>
    <vehicle id="IN_19_c_1.14" type="car" depart="103.00" departLane="best">
        <route edges="L_1905 L_05041 L_0504 L_0407 L_0716"/>
    </vehicle>
    <vehicle id="IN_18_c_1.15" type="car" depart="107.00" departLane="best">
        <route edges="L_18051 L_1805 L_0519"/>
    </vehicle>
    <vehicle id="IN_14_c_1.6" type="car" depart="110.00" departLane="best">
        <route edges="L_14041 L_1404 L_0407 L_0716"/>
    </vehicle>
    <vehicle id="IN_18_c_1.16" type="car" depart="111.00" departLane="best">
        <route edges="L_18051 L_1805 L_0519"/>
    </vehicle>
    <vehicle id="IN_12_c_1.2" type="car" depart="112.00" departLane="best">
        <route edges="L_1206 L_0611"/>
    </vehicle>
    <vehicle id="IN_19_c_1.15" type="car" depart="115.00" departLane="best">
        <route edges="L_1905 L_05041 L_0504 L_0403 L_0302 L_0201 L_0108"/>
    </vehicle>
    <vehicle id="IN_08_c_1.11" type="car" depart="117.00" departLane="best">
        <route edges="L_0801 L_0102 L_0203 L_03041 L_0304 L_04051 L_04052 L_0519"/>
    </vehicle>
    <vehicle id="IN_16_c_1.11" type="car" depart="119.00" departLane="best">
        <route edges="L_1607 L_0704 L_0414"/>
    </vehicle>
    <vehicle id="IN_18_c_1.17" type="car" depart="119.00" departLane="best">
        <route edges="L_18051 L_1805 L_0520"/>
    </vehicle>
    <vehicle id="IN_18_c_1.18" type="car" depart="120.00" departLane="best">
        <route edges="L_18051 L_1805 L_0519"/>
    </vehicle>
    <vehicle id="IN_08_c_1.12" type="car" depart="121.00" departLane="best">
        <route edges="L_0801 L_0102 L_0203 L_03041 L_0304 L_04051 L_04052 L_0519"/>
    </vehicle>
    <vehicle id="IN_15_c_1.2" type="car" depart="121.00" departLane="best">
        <route edges="L_1507 L_0716"/>
    </vehicle>
    <vehicle id="IN_19_c_1.16" type="car" depart="121.00" departLane="best">
        <route edges="L_1905 L_05041 L_0504 L_0403 L_0302 L_0206 L_0611"/>
    </vehicle>
    <vehicle id="IN_11_c_1.7" type="car" depart="123.00" departLane="best">
        <route edges="L_1106 L_0602 L_0203 L_03041 L_0304 L_04051 L_04052 L_0519"/>
    </vehicle>
    <vehicle id="IN_11_c_1.8" type="car" depart="125.00" departLane="best">
        <route edges="L_1106 L_0612"/>
    </vehicle>
    <vehicle id="IN_19_c_1.17" type="car" depart="126.00" departLane="best">
        <route edges="L_1905 L_05041 L_0504 L_0403 L_0302 L_0201 L_0108"/>
    </vehicle>
    <vehicle id="IN_08_c_1.13" type="car" depart="128.00" departLane="best">
        <route edges="L_0801 L_0102 L_0203 L_03041 L_0304 L_04051 L_04052 L_0519"/>
    </vehicle>
    <vehicle id="IN_19_c_1.18" type="car" depart="128.00" departLane="best">
        <route edges="L_1905 L_05041 L_0504 L_0414"/>
    </vehicle>
    <vehicle id="IN_08_c_1.14" type="car" depart="129.00" departLane="best">
        <route edges="L_0801 L_0102 L_0203 L_03041 L_0304 L_04051 L_04052 L_0520"/>
    </vehicle>
    <vehicle id="IN_16_c_1.12" type="car" depart="129.00" departLane="best">
        <route edges="L_1607 L_0704 L_04051 L_04052 L_0519"/>
    </vehicle>
    <vehicle id="IN_08_c_1.15" type="car" depart="130.00" departLane="best">
        <route edges="L_0801 L_0102 L_0203 L_03041 L_0304 L_04051 L_04052 L_0519"/>
    </vehicle>
    <vehicle id="IN_11_c_1.9" type="car" depart="133.00" departLane="best">
        <route edges="L_1106 L_0602 L_0203 L_03041 L_0304 L_04051 L_04052 L_0519"/>
    </vehicle>
    <vehicle id="IN_19_c_1.19" type="car" depart="133.00" departLane="best">
        <route edges="L_1905 L_05041 L_0504 L_0403 L_0302 L_0201 L_0108"/>
    </vehicle>
    <vehicle id="IN_18_c_1.19" type="car" depart="139.00" departLane="best">
        <route edges="L_18051 L_1805 L_0519"/>
    </vehicle>
    <vehicle id="IN_18_c_1.20" type="car" depart="140.00" departLane="best">
        <route edges="L_18051 L_1805 L_0519"/>
    </vehicle>
    <vehicle id="IN_19_c_1.20" type="car" depart="140.00" departLane="best">
        <route edges="L_1905 L_05041 L_0504 L_0403 L_0302 L_0201 L_0108"/>
    </vehicle>
    <vehicle id="IN_19_c_1.21" type="car" depart="142.00" departLane="best">
        <route edges="L_1905 L_05041 L_0504 L_0403 L_0302 L_0206 L_0611"/>
    </vehicle>
    <vehicle id="IN_14_c_1.7" type="car" depart="143.00" departLane="best">
        <route edges="L_14041 L_1404 L_0407 L_0716"/>
    </vehicle>
    <vehicle id="IN_19_c_1.22" type="car" depart="143.00" departLane="best">
        <route edges="L_1905 L_0518"/>
    </vehicle>
    <vehicle id="IN_18_c_1.21" type="car" depart="144.00" departLane="best">
        <route edges="L_18051 L_1805 L_0520"/>
    </vehicle>
    <vehicle id="IN_16_c_1.13" type="car" depart="146.00" departLane="best">
        <route edges="L_1607 L_0715"/>
    </vehicle>
    <vehicle id="IN_19_c_1.23" type="car" depart="146.00" departLane="best">
        <route edges="L_1905 L_05041 L_0504 L_0403 L_0302 L_0201 L_0108"/>
    </vehicle>
    <vehicle id="IN_18_c_1.22" type="car" depart="147.00" departLane="best">
        <route edges="L_18051 L_1805 L_0520"/>
    </vehicle>
    <vehicle id="IN_11_c_1.10" type="car" depart="149.00" departLane="best">
        <route edges="L_1106 L_0602 L_0203 L_03041 L_0304 L_04051 L_04052 L_0519"/>
    </vehicle>
    <vehicle id="IN_18_c_1.23" type="car" depart="150.00" departLane="best">
        <route edges="L_18051 L_1805 L_0520"/>
    </vehicle>
    <vehicle id="IN_08_c_1.16" type="car" depart="152.00" departLane="best">
        <route edges="L_0801 L_0102 L_0203 L_03041 L_0304 L_04051 L_04052 L_0519"/>
    </vehicle>
    <vehicle id="IN_18_c_1.24" type="car" depart="154.00" departLane="best">
        <route edges="L_18051 L_1805 L_0519"/>
    </vehicle>
    <vehicle id="IN_08_c_1.17" type="car" depart="156.00" departLane="best">
        <route edges="L_0801 L_0102 L_0203 L_03041 L_0304 L_04051 L_04052 L_0519"/>
    </vehicle>
    <vehicle id="IN_11_c_1.11" type="car" depart="158.00" departLane="best">
        <route edges="L_1106 L_0612"/>
    </vehicle>
    <vehicle id="IN_19_c_1.24" type="car" depart="158.00" departLane="best">
        <route edges="L_1905 L_05041 L_0504 L_0403 L_0302 L_0201 L_0108"/>
    </vehicle>
    <vehicle id="IN_18_c_1.25" type="car" depart="159.00" departLane="best">
        <route edges="L_18051 L_1805 L_0519"/>
    </vehicle>
    <vehicle id="IN_08_c_1.18" type="car" depart="160.00" departLane="best">
        <route edges="L_0801 L_0102 L_0203 L_03041 L_0304 L_04051 L_04052 L_0520"/>
    </vehicle>
    <vehicle id="IN_18_c_1.26" type="car" depart="160.00" departLane="best">
        <route edges="L_18051 L_1805 L_0520"/>
    </vehicle>
    <vehicle id="IN_15_c_1.3" type="car" depart="162.00" departLane="best">
        <route edges="L_1507 L_0704 L_0414"/>
    </vehicle>
    <vehicle id="IN_19_c_1.25" type="car" depart="164.00" departLane="best">
        <route edges="L_1905 L_0518"/>
    </vehicle>
    <vehicle id="IN_19_c_1.26" type="car" depart="165.00" departLane="best">
        <route edges="L_1905 L_05041 L_0504 L_0403 L_0302 L_0201 L_0108"/>
    </vehicle>
    <vehicle id="IN_15_c_1.4" type="car" depart="167.00" departLane="best">
        <route edges="L_1507 L_0716"/>
    </vehicle>
    <vehicle id="IN_19_c_1.27" type="car" depart="167.00" departLane="best">
        <route edges="L_1905 L_05041 L_0504 L_0403 L_0302 L_0201 L_0108"/>
    </vehicle>
    <vehicle id="IN_08_c_1.19" type="car" depart="168.00" departLane="best">
        <route edges="L_0801 L_0102 L_0203 L_03041 L_0304 L_04051 L_04052 L_0519"/>
    </vehicle>
    <vehicle id="IN_18_c_1.27" type="car" depart="169.00" departLane="best">
        <route edges="L_18051 L_1805 L_0520"/>
    </vehicle>
    <vehicle id="IN_11_c_1.12" type="car" depart="170.00" departLane="best">
        <route edges="L_1106 L_0602 L_0201 L_0108"/>
    </vehicle>
    <vehicle id="IN_14_c_1.8" type="car" depart="171.00" departLane="best">
        <route edges="L_14041 L_1404 L_04051 L_04052 L_0519"/>
    </vehicle>
    <vehicle id="IN_18_c_1.28" type="car" depart="171.00" departLane="best">
        <route edges="L_18051 L_1805 L_0519"/>
    </vehicle>
    <vehicle id="IN_19_c_1.28" type="car" depart="174.00" departLane="best">
        <route edges="L_1905 L_05041 L_0504 L_0403 L_0302 L_0201 L_0108"/>
    </vehicle>
    <vehicle id="IN_18_c_1.29" type="car" depart="176.00" departLane="best">
        <route edges="L_18051 L_1805 L_0519"/>
    </vehicle>
    <vehicle id="IN_18_c_1.30" type="car" depart="183.00" departLane="best">
        <route edges="L_18051 L_1805 L_0519"/>
    </vehicle>
    <vehicle id="IN_19_c_1.29" type="car" depart="183.00" departLane="best">
        <route edges="L_1905 L_0518"/>
    </vehicle>
    <vehicle id="IN_08_c_1.20" type="car" depart="184.00" departLane="best">
        <route edges="L_0801 L_0102 L_0203 L_03041 L_0304 L_0407 L_0716"/>
    </vehicle>
    <vehicle id="IN_19_c_1.30" type="car" depart="184.00" departLane="best">
        <route edges="L_1905 L_0518"/>
    </vehicle>
    <vehicle id="IN_16_c_1.14" type="car" depart="186.00" departLane="best">
        <route edges="L_1607 L_0704 L_04051 L_04052 L_0519"/>
    </vehicle>
    <vehicle id="IN_08_c_1.21" type="car" depart="187.00" departLane="best">
        <route edges="L_0801 L_0102 L_0206 L_0611"/>
    </vehicle>
    <vehicle id="IN_16_c_1.15" type="car" depart="187.00" departLane="best">
        <route edges="L_1607 L_0704 L_0414"/>
    </vehicle>
    <vehicle id="IN_14_c_1.9" type="car" depart="188.00" departLane="best">
        <route edges="L_14041 L_1404 L_04051 L_04052 L_0519"/>
    </vehicle>
    <vehicle id="IN_18_c_1.31" type="car" depart="188.00" departLane="best">
        <route edges="L_18051 L_1805 L_0520"/>
    </vehicle>
    <vehicle id="IN_11_c_1.13" type="car" depart="189.00" departLane="best">
        <route edges="L_1106 L_0612"/>
    </vehicle>
    <vehicle id="IN_14_c_1.10" type="car" depart="189.00" departLane="best">
        <route edges="L_14041 L_1404 L_0407 L_0716"/>
    </vehicle>
    <vehicle id="IN_19_c_1.31" type="car" depart="189.00" departLane="best">
        <route edges="L_1905 L_05041 L_0504 L_0403 L_0302 L_0201 L_0108"/>
    </vehicle>
    <vehicle id="IN_08_c_1.22" type="car" depart="192.00" departLane="best">
        <route edges="L_0801 L_0102 L_0203 L_03041 L_0304 L_04051 L_04052 L_0519"/>
    </vehicle>
    <vehicle id="IN_08_c_1.23" type="car" depart="193.00" departLane="best">
        <route edges="L_0801 L_0102 L_0203 L_03041 L_0304 L_04051 L_04052 L_0520"/>
    </vehicle>
    <vehicle id="IN_18_c_1.32" type="car" depart="194.00" departLane="best">
        <route edges="L_18051 L_1805 L_0519"/>
    </vehicle>
    <vehicle id="IN_11_c_1.14" type="car" depart="195.00" departLane="best">
        <route edges="L_1106 L_0602 L_0203 L_03041 L_0304 L_04051 L_04052 L_0519"/>
    </vehicle>
    <vehicle id="IN_19_c_1.32" type="car" depart="195.00" departLane="best">
        <route edges="L_1905 L_05041 L_0504 L_0403 L_0302 L_0201 L_0108"/>
    </vehicle>
    <vehicle id="IN_15_c_1.5" type="car" depart="196.00" departLane="best">
        <route edges="L_1507 L_0704 L_0403 L_0302 L_0201 L_0108"/>
    </vehicle>
    <vehicle id="IN_19_c_1.33" type="car" depart="197.00" departLane="best">
        <route edges="L_1905 L_0518"/>
    </vehicle>
    <vehicle id="IN_08_c_1.24" type="car" depart="198.00" departLane="best">
        <route edges="L_0801 L_0102 L_0203 L_03041 L_0304 L_04051 L_04052 L_0519"/>
    </vehicle>
    <vehicle id="IN_19_c_1.34" type="car" depart="200.00" departLane="best">
        <route edges="L_1905 L_05041 L_0504 L_0403 L_0302 L_0206 L_0611"/>
    </vehicle>
    <vehicle id="IN_18_c_1.33" type="car" depart="202.00" departLane="best">
        <route edges="L_18051 L_1805 L_0520"/>
    </vehicle>
    <vehicle id="IN_18_c_1.34" type="car" depart="204.00" departLane="best">
        <route edges="L_18051 L_1805 L_0520"/>
    </vehicle>
    <vehicle id="IN_15_c_1.6" type="car" depart="206.00" departLane="best">
        <route edges="L_1507 L_0716"/>
    </vehicle>
    <vehicle id="IN_18_c_1.35" type="car" depart="207.00" departLane="best">
        <route edges="L_18051 L_1805 L_0520"/>
    </vehicle>
    <vehicle id="IN_08_c_1.25" type="car" depart="210.00" departLane="best">
        <route edges="L_0801 L_0102 L_0203 L_03041 L_0304 L_04051 L_04052 L_0519"/>
    </vehicle>
    <vehicle id="IN_19_c_1.35" type="car" depart="210.00" departLane="best">
        <route edges="L_1905 L_0518"/>
    </vehicle>
    <vehicle id="IN_08_c_1.26" type="car" depart="213.00" departLane="best">
        <route edges="L_0801 L_0102 L_0203 L_03041 L_0304 L_04051 L_04052 L_0519"/>
    </vehicle>
    <vehicle id="IN_16_c_1.16" type="car" depart="213.00" departLane="best">
        <route edges="L_1607 L_0704 L_04051 L_04052 L_0519"/>
    </vehicle>
    <vehicle id="IN_19_c_1.36" type="car" depart="213.00" departLane="best">
        <route edges="L_1905 L_05041 L_0504 L_0403 L_0302 L_0201 L_0108"/>
    </vehicle>
    <vehicle id="IN_18_c_1.36" type="car" depart="214.00" departLane="best">
        <route edges="L_18051 L_1805 L_0519"/>
    </vehicle>
    <vehicle id="IN_08_c_1.27" type="car" depart="216.00" departLane="best">
        <route edges="L_0801 L_0102 L_0203 L_03041 L_0304 L_04051 L_04052 L_0520"/>
    </vehicle>
    <vehicle id="IN_16_c_1.17" type="car" depart="216.00" departLane="best">
        <route edges="L_1607 L_0704 L_04051 L_04052 L_0519"/>
    </vehicle>
    <vehicle id="IN_18_c_1.37" type="car" depart="216.00" departLane="best">
        <route edges="L_18051 L_1805 L_0519"/>
    </vehicle>
    <vehicle id="IN_12_c_1.3" type="car" depart="217.00" departLane="best">
        <route edges="L_1206 L_0611"/>
    </vehicle>
    <vehicle id="IN_19_c_1.37" type="car" depart="218.00" departLane="best">
        <route edges="L_1905 L_0518"/>
    </vehicle>
    <vehicle id="IN_19_c_1.38" type="car" depart="224.00" departLane="best">
        <route edges="L_1905 L_0518"/>
    </vehicle>
    <vehicle id="IN_19_c_1.39" type="car" depart="225.00" departLane="best">
        <route edges="L_1905 L_0518"/>
    </vehicle>
    <vehicle id="IN_18_c_1.38" type="car" depart="229.00" departLane="best">
        <route edges="L_18051 L_1805 L_0519"/>
    </vehicle>
    <vehicle id="IN_15_c_1.7" type="car" depart="230.00" departLane="best">
        <route edges="L_1507 L_0716"/>
    </vehicle>
    <vehicle id="IN_08_c_1.28" type="car" depart="233.00" departLane="best">
        <route edges="L_0801 L_0102 L_0203 L_0313"/>
    </vehicle>
    <vehicle id="IN_18_c_1.39" type="car" depart="236.00" departLane="best">
        <route edges="L_18051 L_1805 L_0520"/>
    </vehicle>
    <vehicle id="IN_19_c_1.40" type="car" depart="238.00" departLane="best">
        <route edges="L_1905 L_05041 L_0504 L_0403 L_0302 L_0201 L_0108"/>
    </vehicle>
    <vehicle id="IN_16_c_1.18" type="car" depart="240.00" departLane="best">
        <route edges="L_1607 L_0704 L_0414"/>
    </vehicle>
    <vehicle id="IN_16_c_1.19" type="car" depart="243.00" departLane="best">
        <route edges="L_1607 L_0704 L_0414"/>
    </vehicle>
    <vehicle id="IN_08_c_1.29" type="car" depart="246.00" departLane="best">
        <route edges="L_0801 L_0102 L_0203 L_03041 L_0304 L_04051 L_04052 L_0519"/>
    </vehicle>
    <vehicle id="IN_11_c_1.15" type="car" depart="246.00" departLane="best">
        <route edges="L_1106 L_0602 L_0203 L_03041 L_0304 L_04051 L_04052 L_0519"/>
    </vehicle>
    <vehicle id="IN_18_c_1.40" type="car" depart="248.00" departLane="best">
        <route edges="L_18051 L_1805 L_0519"/>
    </vehicle>
    <vehicle id="IN_15_c_1.8" type="car" depart="250.00" departLane="best">
        <route edges="L_1507 L_0704 L_0414"/>
    </vehicle>
    <vehicle id="IN_19_c_1.41" type="car" depart="254.00" departLane="best">
        <route edges="L_1905 L_0518"/>
    </vehicle>
    <vehicle id="IN_11_c_1.16" type="car" depart="257.00" departLane="best">
        <route edges="L_1106 L_0602 L_0203 L_03041 L_0304 L_04051 L_04052 L_0519"/>
    </vehicle>
    <vehicle id="IN_18_c_1.41" type="car" depart="257.00" departLane="best">
        <route edges="L_18051 L_1805 L_0519"/>
    </vehicle>
    <vehicle id="IN_19_c_1.42" type="car" depart="257.00" departLane="best">
        <route edges="L_1905 L_0518"/>
    </vehicle>
    <vehicle id="IN_08_c_1.30" type="car" depart="258.00" departLane="best">
        <route edges="L_0801 L_0102 L_0203 L_03041 L_0304 L_0407 L_0716"/>
    </vehicle>
    <vehicle id="IN_16_c_1.20" type="car" depart="258.00" departLane="best">
        <route edges="L_1607 L_0704 L_0414"/>
    </vehicle>
    <vehicle id="IN_18_c_1.42" type="car" depart="258.00" departLane="best">
        <route edges="L_18051 L_1805 L_0520"/>
    </vehicle>
    <vehicle id="IN_19_c_1.43" type="car" depart="259.00" departLane="best">
        <route edges="L_1905 L_05041 L_0504 L_0403 L_0302 L_0201 L_0108"/>
    </vehicle>
    <vehicle id="IN_16_c_1.21" type="car" depart="262.00" departLane="best">
        <route edges="L_1607 L_0704 L_0414"/>
    </vehicle>
    <vehicle id="IN_18_c_1.43" type="car" depart="262.00" departLane="best">
        <route edges="L_18051 L_1805 L_0520"/>
    </vehicle>
    <vehicle id="IN_08_c_1.31" type="car" depart="263.00" departLane="best">
        <route edges="L_0801 L_0102 L_0203 L_03041 L_0304 L_04051 L_04052 L_0519"/>
    </vehicle>
    <vehicle id="IN_19_c_1.44" type="car" depart="269.00" departLane="best">
        <route edges="L_1905 L_0518"/>
    </vehicle>
    <vehicle id="IN_14_c_1.11" type="car" depart="271.00" departLane="best">
        <route edges="L_14041 L_1404 L_0403 L_0302 L_0201 L_0108"/>
    </vehicle>
    <vehicle id="IN_18_c_1.44" type="car" depart="271.00" departLane="best">
        <route edges="L_18051 L_1805 L_0519"/>
    </vehicle>
    <vehicle id="IN_08_c_1.32" type="car" depart="272.00" departLane="best">
        <route edges="L_0801 L_0102 L_0203 L_03041 L_0304 L_04051 L_04052 L_0519"/>
    </vehicle>
    <vehicle id="IN_14_c_1.12" type="car" depart="273.00" departLane="best">
        <route edges="L_14041 L_1404 L_0407 L_0716"/>
    </vehicle>
    <vehicle id="IN_15_c_1.9" type="car" depart="273.00" departLane="best">
        <route edges="L_1507 L_0716"/>
    </vehicle>
    <vehicle id="IN_18_c_1.45" type="car" depart="275.00" departLane="best">
        <route edges="L_18051 L_1805 L_0519"/>
    </vehicle>
    <vehicle id="IN_08_c_1.33" type="car" depart="277.00" departLane="best">
        <route edges="L_0801 L_0102 L_0203 L_03041 L_0304 L_04051 L_04052 L_0519"/>
    </vehicle>
    <vehicle id="IN_18_c_1.46" type="car" depart="278.00" departLane="best">
        <route edges="L_18051 L_1805 L_0519"/>
    </vehicle>