<?xml version="1.0" encoding="UTF-8"?>

<!-- generated on 2023-07-22 15:22:00 by Eclipse SUMO jtrrouter Version 1.16.0
<configuration xmlns:xsi="http://www.w3.org/2001/XMLSchema-instance" xsi:noNamespaceSchemaLocation="http://sumo.dlr.de/xsd/jtrrouterConfiguration.xsd">

    <input>
        <net-file value="D:\02_運研所AI號控\建模檔\TEST_V2\SUMO_IOT_Taipei_testing\B1\sumo_Taipei_AM\Taipei_AM.net.xml"/>
        <route-files value="D:\02_運研所AI號控\建模檔\TEST_V2\SUMO_IOT_Taipei_testing\B1\sumo_Taipei_AM\router_AM_b.flowdef.xml"/>
        <turn-ratio-files value="D:\02_運研所AI號控\建模檔\TEST_V2\SUMO_IOT_Taipei_testing\B1\sumo_Taipei_AM\router_AM_b.turndef.xml"/>
    </input>

    <output>
        <output-file value="D:\02_運研所AI號控\建模檔\TEST_V2\SUMO_IOT_Taipei_testing\B1\sumo_Taipei_AM\router_AM_b.rou.xml"/>
    </output>

    <time>
        <begin value="0"/>
        <end value="10800"/>
    </time>

    <random_number>
        <seed value="4310"/>
    </random_number>

</configuration>
-->

<routes xmlns:xsi="http://www.w3.org/2001/XMLSchema-instance" xsi:noNamespaceSchemaLocation="http://sumo.dlr.de/xsd/routes_file.xsd">
    <vType id="truck" length="12.00" minGap="1.00" vClass="truck" accel="3.5" decel="1.0" emergencyDecel="7.5"/>
    <vehicle id="IN_18_b_1.0" type="truck" depart="17.00" departLane="best">
        <route edges="L_18051 L_1805 L_0520"/>
    </vehicle>
    <vehicle id="IN_19_b_1.0" type="truck" depart="18.00" departLane="best">
        <route edges="L_1905 L_0518"/>
    </vehicle>
    <vehicle id="IN_18_b_1.1" type="truck" depart="25.00" departLane="best">
        <route edges="L_18051 L_1805 L_0519"/>
    </vehicle>
    <vehicle id="IN_18_b_1.2" type="truck" depart="33.00" departLane="best">
        <route edges="L_18051 L_1805 L_0519"/>
    </vehicle>
    <vehicle id="IN_14_b_1.0" type="truck" depart="41.00" departLane="best">
        <route edges="L_14041 L_1404 L_0407 L_0716"/>
    </vehicle>
    <vehicle id="IN_19_b_1.1" type="truck" depart="43.00" departLane="best">
        <route edges="L_1905 L_05041 L_0504 L_0403 L_0302 L_0201 L_0108"/>
    </vehicle>
    <vehicle id="IN_19_b_1.2" type="truck" depart="45.00" departLane="best">
        <route edges="L_1905 L_0518"/>
    </vehicle>
    <vehicle id="IN_19_b_1.3" type="truck" depart="51.00" departLane="best">
        <route edges="L_1905 L_0518"/>
    </vehicle>
    <vehicle id="IN_19_b_1.4" type="truck" depart="57.00" departLane="best">
        <route edges="L_1905 L_05041 L_0504 L_0403 L_0302 L_0201 L_0108"/>
    </vehicle>
    <vehicle id="IN_18_b_1.3" type="truck" depart="75.00" departLane="best">
        <route edges="L_18051 L_1805 L_0520"/>
    </vehicle>
    <vehicle id="IN_14_b_1.1" type="truck" depart="87.00" departLane="best">
        <route edges="L_14041 L_1404 L_0407 L_0716"/>
    </vehicle>
    <vehicle id="IN_14_b_1.2" type="truck" depart="112.00" departLane="best">
        <route edges="L_14041 L_1404 L_0407 L_0716"/>
    </vehicle>
    <vehicle id="IN_19_b_1.5" type="truck" depart="120.00" departLane="best">
        <route edges="L_1905 L_0518"/>
    </vehicle>
    <vehicle id="IN_19_b_1.6" type="truck" depart="154.00" departLane="best">
        <route edges="L_1905 L_05041 L_0504 L_0403 L_0302 L_0201 L_0108"/>
    </vehicle>
    <vehicle id="IN_16_b_1.0" type="truck" depart="162.00" departLane="best">
        <route edges="L_1607 L_0704 L_0414"/>
    </vehicle>
    <vehicle id="IN_16_b_1.1" type="truck" depart="167.00" departLane="best">
        <route edges="L_1607 L_0704 L_0414"/>
    </vehicle>
    <vehicle id="IN_19_b_1.7" type="truck" depart="183.00" departLane="best">
        <route edges="L_1905 L_0518"/>
    </vehicle>
    <vehicle id="IN_18_b_1.4" type="truck" depart="187.00" departLane="best">
        <route edges="L_18051 L_1805 L_0519"/>
    </vehicle>
    <vehicle id="IN_16_b_1.2" type="truck" depart="196.00" departLane="best">
        <route edges="L_1607 L_0704 L_0403 L_0302 L_0201 L_0108"/>
    </vehicle>
    <vehicle id="IN_08_b_1.0" type="truck" depart="200.00" departLane="best">
        <route edges="L_0801 L_0102 L_0203 L_03041 L_0304 L_04051 L_04052 L_0519"/>
    </vehicle>
    <vehicle id="IN_08_b_1.1" type="truck" depart="212.00" departLane="best">
        <route edges="L_0801 L_0102 L_0203 L_03041 L_0304 L_04051 L_04052 L_0519"/>
    </vehicle>
    <vehicle id="IN_19_b_1.8" type="truck" depart="257.00" departLane="best">
        <route edges="L_1905 L_05041 L_0504 L_0403 L_0302 L_0201 L_0108"/>
    </vehicle>
    <vehicle id="IN_19_b_1.9" type="truck" depart="275.00" departLane="best">
        <route edges="L_1905 L_0518"/>
    </vehicle>
    <vehicle id="IN_19_b_1.10" type="truck" depart="295.00" departLane="best">
        <route edges="L_1905 L_05041 L_0504 L_0403 L_0302 L_0201 L_0108"/>
    </vehicle>
    <vehicle id="IN_14_b_1.3" type="truck" depart="341.00" departLane="best">
        <route edges="L_14041 L_1404 L_04051 L_04052 L_0519"/>
    </vehicle>
    <vehicle id="IN_16_b_1.3" type="truck" depart="343.00" departLane="best">
        <route edges="L_1607 L_0704 L_0414"/>
    </vehicle>
    <vehicle id="IN_16_b_1.4" type="truck" depart="365.00" departLane="best">
        <route edges="L_1607 L_0704 L_0403 L_0302 L_0201 L_0108"/>
    </vehicle>
    <vehicle id="IN_18_b_1.5" type="truck" depart="377.00" departLane="best">
        <route edges="L_18051 L_1805 L_05041 L_0504 L_0403 L_0302 L_0201 L_0108"/>
    </vehicle>
    <vehicle id="IN_19_b_1.11" type="truck" depart="407.00" departLane="best">
        <route edges="L_1905 L_0518"/>
    </vehicle>
    <vehicle id="IN_18_b_1.6" type="truck" depart="446.00" departLane="best">
        <route edges="L_18051 L_1805 L_0519"/>
    </vehicle>
    <vehicle id="IN_19_b_1.12" type="truck" depart="452.00" departLane="best">
        <route edges="L_1905 L_05041 L_0504 L_0403 L_0302 L_0201 L_0108"/>
    </vehicle>
    <vehicle id="IN_14_b_1.4" type="truck" depart="455.00" departLane="best">
        <route edges="L_14041 L_1404 L_0407 L_0716"/>
    </vehicle>
    <vehicle id="IN_19_b_1.13" type="truck" depart="457.00" departLane="best">
        <route edges="L_1905 L_05041 L_0504 L_0403 L_0302 L_0201 L_0108"/>
    </vehicle>
    <vehicle id="IN_08_b_1.2" type="truck" depart="463.00" departLane="best">
        <route edges="L_0801 L_0102 L_0203 L_03041 L_0304 L_04051 L_04052 L_0519"/>
    </vehicle>
    <vehicle id="IN_19_b_1.14" type="truck" depart="602.00" departLane="best">
        <route edges="L_1905 L_0518"/>
    </vehicle>
    <vehicle id="IN_18_b_1.7" type="truck" depart="608.00" departLane="best">
        <route edges="L_18051 L_1805 L_0519"/>
    </vehicle>
    <vehicle id="IN_16_b_1.5" type="truck" depart="647.00" departLane="best">
        <route edges="L_1607 L_0704 L_0414"/>
    </vehicle>
    <vehicle id="IN_19_b_1.15" type="truck" depart="658.00" departLane="best">
        <route edges="L_1905 L_0518"/>
    </vehicle>
    <vehicle id="IN_19_b_1.16" type="truck" depart="662.00" departLane="best">
        <route edges="L_1905 L_0518"/>
    </vehicle>
    <vehicle id="IN_19_b_1.17" type="truck" depart="684.00" departLane="best">
        <route edges="L_1905 L_05041 L_0504 L_0403 L_0302 L_0201 L_0108"/>
    </vehicle>
    <vehicle id="IN_18_b_1.8" type="truck" depart="691.00" departLane="best">
        <route edges="L_18051 L_1805 L_0520"/>
    </vehicle>
    <vehicle id="IN_14_b_1.5" type="truck" depart="697.00" departLane="best">
        <route edges="L_14041 L_1404 L_0407 L_0716"/>
    </vehicle>
    <vehicle id="IN_19_b_1.18" type="truck" depart="697.00" departLane="best">
        <route edges="L_1905 L_0518"/>
    </vehicle>
    <vehicle id="IN_08_b_1.3" type="truck" depart="727.00" departLane="best">
        <route edges="L_0801 L_0102 L_0203 L_03041 L_0304 L_0414"/>
    </vehicle>
    <vehicle id="IN_08_b_1.4" type="truck" depart="735.00" departLane="best">
        <route edges="L_0801 L_0102 L_0203 L_03041 L_0304 L_04051 L_04052 L_0519"/>
    </vehicle>
    <vehicle id="IN_08_b_1.5" type="truck" depart="754.00" departLane="best">
        <route edges="L_0801 L_0102 L_0203 L_03041 L_0304 L_04051 L_04052 L_0519"/>
    </vehicle>
    <vehicle id="IN_16_b_1.6" type="truck" depart="781.00" departLane="best">
        <route edges="L_1607 L_0704 L_0403 L_0302 L_0201 L_0108"/>
    </vehicle>
    <vehicle id="IN_18_b_1.9" type="truck" depart="876.00" departLane="best">
        <route edges="L_18051 L_1805 L_0520"/>
    </vehicle>
    <vehicle id="IN_19_b_1.19" type="truck" depart="969.00" departLane="best">
        <route edges="L_1905 L_05041 L_0504 L_0403 L_0302 L_0201 L_0108"/>
    </vehicle>
    <vehicle id="IN_08_b_1.6" type="truck" depart="976.00" departLane="best">
        <route edges="L_0801 L_0102 L_0203 L_03041 L_0304 L_04051 L_04052 L_0519"/>
    </vehicle>
    <vehicle id="IN_19_b_1.20" type="truck" depart="989.00" departLane="best">
        <route edges="L_1905 L_05041 L_0504 L_0403 L_0302 L_0201 L_0108"/>
    </vehicle>
    <vehicle id="IN_19_b_1.21" type="truck" depart="1007.00" departLane="best">
        <route edges="L_1905 L_05041 L_0504 L_0403 L_0302 L_0201 L_0108"/>
    </vehicle>
    <vehicle id="IN_19_b_1.22" type="truck" depart="1019.00" departLane="best">
        <route edges="L_1905 L_0518"/>
    </vehicle>
    <vehicle id="IN_19_b_1.23" type="truck" depart="1064.00" departLane="best">
        <route edges="L_1905 L_0518"/>
    </vehicle>
    <vehicle id="IN_19_b_1.24" type="truck" depart="1100.00" departLane="best">
        <route edges="L_1905 L_0518"/>
    </vehicle>
    <vehicle id="IN_18_b_1.10" type="truck" depart="1114.00" departLane="best">
        <route edges="L_18051 L_1805 L_0519"/>
    </vehicle>
    <vehicle id="IN_19_b_1.25" type="truck" depart="1120.00" departLane="best">
        <route edges="L_1905 L_05041 L_0504 L_0403 L_0302 L_0201 L_0108"/>
    </vehicle>
    <vehicle id="IN_16_b_1.7" type="truck" depart="1136.00" departLane="best">
        <route edges="L_1607 L_0704 L_0403 L_0302 L_0201 L_0108"/>
    </vehicle>
    <vehicle id="IN_19_b_1.26" type="truck" depart="1157.00" departLane="best">
        <route edges="L_1905 L_05041 L_0504 L_0403 L_0302 L_0201 L_0108"/>
    </vehicle>
    <vehicle id="IN_18_b_1.11" type="truck" depart="1163.00" departLane="best">
        <route edges="L_18051 L_1805 L_05041 L_0504 L_0403 L_0302 L_0201 L_0108"/>
    </vehicle>
    <vehicle id="IN_19_b_1.27" type="truck" depart="1233.00" departLane="best">
        <route edges="L_1905 L_05041 L_0504 L_0403 L_0302 L_0201 L_0108"/>
    </vehicle>
    <vehicle id="IN_12_b_1.0" type="truck" depart="1234.00" departLane="best">
        <route edges="L_1206 L_0602 L_0201 L_0108"/>
    </vehicle>
    <vehicle id="IN_14_b_1.6" type="truck" depart="1274.00" departLane="best">
        <route edges="L_14041 L_1404 L_0407 L_0716"/>
    </vehicle>
    <vehicle id="IN_16_b_1.8" type="truck" depart="1293.00" departLane="best">
        <route edges="L_1607 L_0704 L_0403 L_0302 L_0201 L_0108"/>
    </vehicle>
    <vehicle id="IN_19_b_1.28" type="truck" depart="1365.00" departLane="best">
        <route edges="L_1905 L_0518"/>
    </vehicle>
    <vehicle id="IN_19_b_1.29" type="truck" depart="1371.00" departLane="best">
        <route edges="L_1905 L_0518"/>
    </vehicle>
    <vehicle id="IN_19_b_1.30" type="truck" depart="1373.00" departLane="best">
        <route edges="L_1905 L_0518"/>
    </vehicle>
    <vehicle id="IN_19_b_1.31" type="truck" depart="1396.00" departLane="best">
        <route edges="L_1905 L_0518"/>
    </vehicle>
    <vehicle id="IN_16_b_1.9" type="truck" depart="1414.00" departLane="best">
        <route edges="L_1607 L_0704 L_0403 L_0302 L_0201 L_0108"/>
    </vehicle>
    <vehicle id="IN_19_b_1.32" type="truck" depart="1416.00" departLane="best">
        <route edges="L_1905 L_05041 L_0504 L_0403 L_0302 L_0206 L_0611"/>
    </vehicle>
    <vehicle id="IN_08_b_1.7" type="truck" depart="1417.00" departLane="best">
        <route edges="L_0801 L_0102 L_0203 L_03041 L_0304 L_04051 L_04052 L_0519"/>
    </vehicle>
    <vehicle id="IN_19_b_1.33" type="truck" depart="1439.00" departLane="best">
        <route edges="L_1905 L_05041 L_0504 L_0403 L_0302 L_0201 L_0108"/>
    </vehicle>
    <vehicle id="IN_18_b_1.12" type="truck" depart="1452.00" departLane="best">
        <route edges="L_18051 L_1805 L_0519"/>
    </vehicle>
    <vehicle id="IN_19_b_1.34" type="truck" depart="1460.00" departLane="best">
        <route edges="L_1905 L_0518"/>
    </vehicle>
    <vehicle id="IN_14_b_1.7" type="truck" depart="1475.00" departLane="best">
        <route edges="L_14041 L_1404 L_04051 L_04052 L_0519"/>
    </vehicle>
    <vehicle id="IN_19_b_1.35" type="truck" depart="1493.00" departLane="best">
        <route edges="L_1905 L_05041 L_0504 L_0403 L_0302 L_0201 L_0108"/>
    </vehicle>
    <vehicle id="IN_19_b_1.36" type="truck" depart="1506.00" departLane="best">
        <route edges="L_1905 L_0518"/>
    </vehicle>
    <vehicle id="IN_19_b_1.37" type="truck" depart="1512.00" departLane="best">
        <route edges="L_1905 L_0518"/>
    </vehicle>
    <vehicle id="IN_16_b_1.10" type="truck" depart="1515.00" departLane="best">
        <route edges="L_1607 L_0704 L_0414"/>
    </vehicle>
    <vehicle id="IN_18_b_1.13" type="truck" depart="1529.00" departLane="best">
        <route edges="L_18051 L_1805 L_0519"/>
    </vehicle>
    <vehicle id="IN_19_b_1.38" type="truck" depart="1555.00" departLane="best">
        <route edges="L_1905 L_0518"/>
    </vehicle>
    <vehicle id="IN_19_b_1.39" type="truck" depart="1561.00" departLane="best">
        <route edges="L_1905 L_05041 L_0504 L_0403 L_0302 L_0201 L_0108"/>
    </vehicle>
    <vehicle id="IN_19_b_1.40" type="truck" depart="1567.00" departLane="best">
        <route edges="L_1905 L_0518"/>
    </vehicle>
    <vehicle id="IN_19_b_1.41" type="truck" depart="1614.00" departLane="best">
        <route edges="L_1905 L_0518"/>
    </vehicle>
    <vehicle id="IN_19_b_1.42" type="truck" depart="1686.00" departLane="best">
        <route edges="L_1905 L_05041 L_0504 L_0403 L_0302 L_0201 L_0108"/>
    </vehicle>
    <vehicle id="IN_19_b_1.43" type="truck" depart="1707.00" departLane="best">
        <route edges="L_1905 L_05041 L_0504 L_0403 L_0302 L_0201 L_0108"/>
    </vehicle>
    <vehicle id="IN_19_b_1.44" type="truck" depart="1730.00" departLane="best">
        <route edges="L_1905 L_0518"/>
    </vehicle>
    <vehicle id="IN_19_b_1.45" type="truck" depart="1769.00" departLane="best">
        <route edges="L_1905 L_05041 L_0504 L_0403 L_0302 L_0201 L_0108"/>
    </vehicle>
    <vehicle id="IN_18_b_1.14" type="truck" depart="1782.00" departLane="best">
        <route edges="L_18051 L_1805 L_0519"/>
    </vehicle>
    <vehicle id="IN_18_b_1.15" type="truck" depart="1787.00" departLane="best">
        <route edges="L_18051 L_1805 L_0520"/>
    </vehicle>
    <vehicle id="IN_18_b_2.0" type="truck" depart="1803.00" departLane="best">
        <route edges="L_18051 L_1805 L_0519"/>
    </vehicle>
    <vehicle id="IN_08_b_2.0" type="truck" depart="1866.00" departLane="best">
        <route edges="L_0801 L_0102 L_0203 L_03041 L_0304 L_04051 L_04052 L_0519"/>
    </vehicle>
    <vehicle id="IN_14_b_2.0" type="truck" depart="1873.00" departLane="best">
        <route edges="L_14041 L_1404 L_04051 L_04052 L_0519"/>
    </vehicle>
    <vehicle id="IN_18_b_2.1" type="truck" depart="1878.00" departLane="best">
        <route edges="L_18051 L_1805 L_0520"/>
    </vehicle>
    <vehicle id="IN_08_b_2.1" type="truck" depart="1890.00" departLane="best">
        <route edges="L_0801 L_0102 L_0203 L_03041 L_0304 L_04051 L_04052 L_0519"/>
    </vehicle>
    <vehicle id="IN_08_b_2.2" type="truck" depart="1897.00" departLane="best">
        <route edges="L_0801 L_0102 L_0203 L_03041 L_0304 L_04051 L_04052 L_0519"/>
    </vehicle>
    <vehicle id="IN_16_b_2.0" type="truck" depart="1914.00" departLane="best">
        <route edges="L_1607 L_0704 L_0414"/>
    </vehicle>
    <vehicle id="IN_18_b_2.2" type="truck" depart="1933.00" departLane="best">
        <route edges="L_18051 L_1805 L_0520"/>
    </vehicle>
    <vehicle id="IN_19_b_2.0" type="truck" depart="1986.00" departLane="best">
        <route edges="L_1905 L_05041 L_0504 L_0403 L_0302 L_0201 L_0108"/>
    </vehicle>
    <vehicle id="IN_19_b_2.1" type="truck" depart="1992.00" departLane="best">
        <route edges="L_1905 L_05041 L_0504 L_0414"/>
    </vehicle>
    <vehicle id="IN_18_b_2.3" type="truck" depart="2014.00" departLane="best">
        <route edges="L_18051 L_1805 L_0519"/>
    </vehicle>
    <vehicle id="IN_08_b_2.3" type="truck" depart="2034.00" departLane="best">
        <route edges="L_0801 L_0102 L_0203 L_03041 L_0304 L_04051 L_04052 L_0519"/>
    </vehicle>
    <vehicle id="IN_18_b_2.4" type="truck" depart="2046.00" departLane="best">
        <route edges="L_18051 L_1805 L_0519"/>
    </vehicle>
    <vehicle id="IN_18_b_2.5" type="truck" depart="2053.00" departLane="best">
        <route edges="L_18051 L_1805 L_0519"/>
    </vehicle>
    <vehicle id="IN_12_b_2.0" type="truck" depart="2056.00" departLane="best">
        <route edges="L_1206 L_0611"/>
    </vehicle>
    <vehicle id="IN_16_b_2.1" type="truck" depart="2076.00" departLane="best">
        <route edges="L_1607 L_0704 L_0414"/>
    </vehicle>
    <vehicle id="IN_14_b_2.1" type="truck" depart="2144.00" departLane="best">
        <route edges="L_14041 L_1404 L_0407 L_0716"/>
    </vehicle>
    <vehicle id="IN_18_b_2.6" type="truck" depart="2158.00" departLane="best">
        <route edges="L_18051 L_1805 L_0520"/>
    </vehicle>
    <vehicle id="IN_19_b_2.2" type="truck" depart="2185.00" departLane="best">
        <route edges="L_1905 L_05041 L_0504 L_0403 L_0302 L_0201 L_0108"/>
    </vehicle>
    <vehicle id="IN_08_b_2.4" type="truck" depart="2216.00" departLane="best">
        <route edges="L_0801 L_0102 L_0203 L_03041 L_0304 L_04051 L_04052 L_0519"/>
    </vehicle>
    <vehicle id="IN_16_b_2.2" type="truck" depart="2279.00" departLane="best">
        <route edges="L_1607 L_0704 L_0414"/>
    </vehicle>
    <vehicle id="IN_19_b_2.3" type="truck" depart="2313.00" departLane="best">
        <route edges="L_1905 L_0518"/>
    </vehicle>
    <vehicle id="IN_16_b_2.3" type="truck" depart="2319.00" departLane="best">
        <route edges="L_1607 L_0704 L_0403 L_0302 L_0201 L_0108"/>
    </vehicle>
    <vehicle id="IN_18_b_2.7" type="truck" depart="2342.00" departLane="best">
        <route edges="L_18051 L_1805 L_0520"/>
    </vehicle>
    <vehicle id="IN_08_b_2.5" type="truck" depart="2365.00" departLane="best">
        <route edges="L_0801 L_0102 L_0203 L_03041 L_0304 L_04051 L_04052 L_0519"/>
    </vehicle>
    <vehicle id="IN_08_b_2.6" type="truck" depart="2390.00" departLane="best">
        <route edges="L_0801 L_0102 L_0203 L_03041 L_0304 L_04051 L_04052 L_0519"/>
    </vehicle>
    <vehicle id="IN_19_b_2.4" type="truck" depart="2413.00" departLane="best">
        <route edges="L_1905 L_05041 L_0504 L_0403 L_0302 L_0201 L_0108"/>
    </vehicle>
    <vehicle id="IN_08_b_2.7" type="truck" depart="2415.00" departLane="best">
        <route edges="L_0801 L_0102 L_0206 L_0611"/>
    </vehicle>
    <vehicle id="IN_18_b_2.8" type="truck" depart="2457.00" departLane="best">
        <route edges="L_18051 L_1805 L_0519"/>
    </vehicle>
    <vehicle id="IN_18_b_2.9" type="truck" depart="2485.00" departLane="best">
        <route edges="L_18051 L_1805 L_0520"/>
    </vehicle>
    <vehicle id="IN_19_b_2.5" type="truck" depart="2492.00" departLane="best">
        <route edges="L_1905 L_0518"/>
    </vehicle>
    <vehicle id="IN_08_b_2.8" type="truck" depart="2514.00" departLane="best">
        <route edges="L_0801 L_0102 L_0203 L_03041 L_0304 L_04051 L_04052 L_0519"/>
    </vehicle>
    <vehicle id="IN_18_b_2.10" type="truck" depart="2533.00" departLane="best">
        <route edges="L_18051 L_1805 L_0520"/>
    </vehicle>
    <vehicle id="IN_18_b_2.11" type="truck" depart="2550.00" departLane="best">
        <route edges="L_18051 L_1805 L_0519"/>
    </vehicle>
    <vehicle id="IN_18_b_2.12" type="truck" depart="2570.00" departLane="best">
        <route edges="L_18051 L_1805 L_0520"/>
    </vehicle>
    <vehicle id="IN_19_b_2.6" type="truck" depart="2661.00" departLane="best">
        <route edges="L_1905 L_0518"/>
    </vehicle>
    <vehicle id="IN_19_b_2.7" type="truck" depart="2674.00" departLane="best">
        <route edges="L_1905 L_0518"/>
    </vehicle>
    <vehicle id="IN_19_b_2.8" type="truck" depart="2723.00" departLane="best">
        <route edges="L_1905 L_05041 L_0504 L_0403 L_0302 L_0206 L_0611"/>
    </vehicle>
    <vehicle id="IN_18_b_2.13" type="truck" depart="2768.00" departLane="best">
        <route edges="L_18051 L_1805 L_0519"/>
    </vehicle>
    <vehicle id="IN_18_b_2.14" type="truck" depart="2785.00" departLane="best">
        <route edges="L_18051 L_1805 L_0520"/>
    </vehicle>
    <vehicle id="IN_19_b_2.9" type="truck" depart="2804.00" departLane="best">
        <route edges="L_1905 L_0518"/>
    </vehicle>
    <vehicle id="IN_18_b_2.15" type="truck" depart="2812.00" departLane="best">
        <route edges="L_18051 L_1805 L_0520"/>
    </vehicle>
    <vehicle id="IN_18_b_2.16" type="truck" depart="2836.00" departLane="best">
        <route edges="L_18051 L_1805 L_0519"/>
    </vehicle>
    <vehicle id="IN_18_b_2.17" type="truck" depart="2868.00" departLane="best">
        <route edges="L_18051 L_1805 L_0519"/>
    </vehicle>
    <vehicle id="IN_19_b_2.10" type="truck" depart="2930.00" departLane="best">
        <route edges="L_1905 L_05041 L_0504 L_0403 L_0302 L_0201 L_0108"/>
    </vehicle>
    <vehicle id="IN_08_b_2.9" type="truck" depart="2937.00" departLane="best">
        <route edges="L_0801 L_0102 L_0203 L_03041 L_0304 L_04051 L_04052 L_0519"/>
    </vehicle>
    <vehicle id="IN_18_b_2.18" type="truck" depart="2941.00" departLane="best">
        <route edges="L_18051 L_1805 L_0520"/>
    </vehicle>
    <vehicle id="IN_08_b_2.10" type="truck" depart="2946.00" departLane="best">
        <route edges="L_0801 L_0102 L_0203 L_03041 L_0304 L_04051 L_04052 L_0519"/>
    </vehicle>
    <vehicle id="IN_18_b_2.19" type="truck" depart="2969.00" departLane="best">
        <route edges="L_18051 L_1805 L_0520"/>
    </vehicle>
    <vehicle id="IN_16_b_2.4" type="truck" depart="2972.00" departLane="best">
        <route edges="L_1607 L_0704 L_04051 L_04052 L_0519"/>
    </vehicle>
    <vehicle id="IN_08_b_2.11" type="truck" depart="2974.00" departLane="best">
        <route edges="L_0801 L_0102 L_0203 L_03041 L_0304 L_04051 L_04052 L_0519"/>
    </vehicle>
    <vehicle id="IN_18_b_2.20" type="truck" depart="3006.00" departLane="best">
        <route edges="L_18051 L_1805 L_0520"/>
    </vehicle>
    <vehicle id="IN_18_b_2.21" type="truck" depart="3009.00" departLane="best">
        <route edges="L_18051 L_1805 L_0520"/>
    </vehicle>
    <vehicle id="IN_19_b_2.11" type="truck" depart="3019.00" departLane="best">
        <route edges="L_1905 L_05041 L_0504 L_0403 L_0313"/>
    </vehicle>
    <vehicle id="IN_19_b_2.12" type="truck" depart="3030.00" departLane="best">
        <route edges="L_1905 L_0518"/>
    </vehicle>
    <vehicle id="IN_18_b_2.22" type="truck" depart="3041.00" departLane="best">
        <route edges="L_18051 L_1805 L_0519"/>
    </vehicle>
    <vehicle id="IN_12_b_2.1" type="truck" depart="3066.00" departLane="best">
        <route edges="L_1206 L_0611"/>
    </vehicle>
    <vehicle id="IN_19_b_2.13" type="truck" depart="3066.00" departLane="best">
        <route edges="L_1905 L_0518"/>
    </vehicle>
    <vehicle id="IN_19_b_2.14" type="truck" depart="3069.00" departLane="best">
        <route edges="L_1905 L_0518"/>
    </vehicle>
    <vehicle id="IN_19_b_2.15" type="truck" depart="3078.00" departLane="best">
        <route edges="L_1905 L_0518"/>
    </vehicle>
    <vehicle id="IN_16_b_2.5" type="truck" depart="3087.00" departLane="best">
        <route edges="L_1607 L_0704 L_0414"/>
    </vehicle>
    <vehicle id="IN_18_b_2.23" type="truck" depart="3092.00" departLane="best">
        <route edges="L_18051 L_1805 L_0519"/>
    </vehicle>
    <vehicle id="IN_19_b_2.16" type="truck" depart="3100.00" departLane="best">
        <route edges="L_1905 L_05041 L_0504 L_0403 L_0302 L_0201 L_0108"/>
    </vehicle>
    <vehicle id="IN_18_b_2.24" type="truck" depart="3103.00" departLane="best">
        <route edges="L_18051 L_1805 L_0519"/>
    </vehicle>
    <vehicle id="IN_12_b_2.2" type="truck" depart="3106.00" departLane="best">
        <route edges="L_1206 L_0611"/>
    </vehicle>
    <vehicle id="IN_18_b_2.25" type="truck" depart="3117.00" departLane="best">
        <route edges="L_18051 L_1805 L_0519"/>
    </vehicle>
    <vehicle id="IN_18_b_2.26" type="truck" depart="3143.00" departLane="best">
        <route edges="L_18051 L_1805 L_0519"/>
    </vehicle>
    <vehicle id="IN_08_b_2.12" type="truck" depart="3171.00" departLane="best">
        <route edges="L_0801 L_0102 L_0203 L_03041 L_0304 L_04051 L_04052 L_0520"/>
    </vehicle>
    <vehicle id="IN_08_b_2.13" type="truck" depart="3184.00" departLane="best">
        <route edges="L_0801 L_0102 L_0203 L_03041 L_0304 L_04051 L_04052 L_0520"/>
    </vehicle>
    <vehicle id="IN_08_b_2.14" type="truck" depart="3196.00" departLane="best">
        <route edges="L_0801 L_0102 L_0203 L_03041 L_0304 L_04051 L_04052 L_0519"/>
    </vehicle>
    <vehicle id="IN_18_b_2.27" type="truck" depart="3219.00" departLane="best">
        <route edges="L_18051 L_1805 L_0519"/>
    </vehicle>
    <vehicle id="IN_19_b_2.17" type="truck" depart="3224.00" departLane="best">
        <route edges="L_1905 L_05041 L_0504 L_0403 L_0302 L_0201 L_0108"/>
    </vehicle>
    <vehicle id="IN_16_b_2.6" type="truck" depart="3243.00" departLane="best">
        <route edges="L_1607 L_0704 L_0414"/>
    </vehicle>
    <vehicle id="IN_16_b_2.7" type="truck" depart="3272.00" departLane="best">
        <route edges="L_1607 L_0704 L_0414"/>
    </vehicle>
    <vehicle id="IN_19_b_2.18" type="truck" depart="3275.00" departLane="best">
        <route edges="L_1905 L_05041 L_0504 L_0407 L_0715"/>
    </vehicle>
    <vehicle id="IN_14_b_2.2" type="truck" depart="3292.00" departLane="best">
        <route edges="L_14041 L_1404 L_0407 L_0716"/>
    </vehicle>
    <vehicle id="IN_18_b_2.28" type="truck" depart="3294.00" departLane="best">
        <route edges="L_18051 L_1805 L_0519"/>
    </vehicle>
    <vehicle id="IN_18_b_2.29" type="truck" depart="3328.00" departLane="best">
        <route edges="L_18051 L_1805 L_0519"/>
    </vehicle>
    <vehicle id="IN_16_b_2.8" type="truck" depart="3351.00" departLane="best">
        <route edges="L_1607 L_0704 L_0414"/>
    </vehicle>
    <vehicle id="IN_18_b_2.30" type="truck" depart="3351.00" departLane="best">
        <route edges="L_18051 L_1805 L_0519"/>
    </vehicle>
    <vehicle id="IN_08_b_2.15" type="truck" depart="3355.00" departLane="best">
        <route edges="L_0801 L_0102 L_0203 L_03041 L_0304 L_04051 L_04052 L_0519"/>
    </vehicle>
    <vehicle id="IN_08_b_2.16" type="truck" depart="3356.00" departLane="best">
        <route edges="L_0801 L_0102 L_0203 L_03041 L_0304 L_0407 L_0716"/>
    </vehicle>
    <vehicle id="IN_08_b_2.17" type="truck" depart="3358.00" departLane="best">
        <route edges="L_0801 L_0102 L_0203 L_03041 L_0304 L_04051 L_04052 L_0520"/>
    </vehicle>
    <vehicle id="IN_08_b_2.18" type="truck" depart="3376.00" departLane="best">
        <route edges="L_0801 L_0102 L_0203 L_03041 L_0304 L_04051 L_04052 L_0519"/>
    </vehicle>
    <vehicle id="IN_18_b_2.31" type="truck" depart="3395.00" departLane="best">
        <route edges="L_18051 L_1805 L_0520"/>
    </vehicle>
    <vehicle id="IN_18_b_2.32" type="truck" depart="3463.00" departLane="best">
        <route edges="L_18051 L_1805 L_0520"/>
    </vehicle>
    <vehicle id="IN_19_b_2.19" type="truck" depart="3464.00" departLane="best">
        <route edges="L_1905 L_0518"/>
    </vehicle>
    <vehicle id="IN_08_b_2.19" type="truck" depart="3466.00" departLane="best">
        <route edges="L_0801 L_0102 L_0203 L_03041 L_0304 L_04051 L_04052 L_0519"/>
    </vehicle>
    <vehicle id="IN_18_b_2.33" type="truck" depart="3492.00" departLane="best">
        <route edges="L_18051 L_1805 L_0520"/>
    </vehicle>
    <vehicle id="IN_18_b_2.34" type="truck" depart="3539.00" departLane="best">
        <route edges="L_18051 L_1805 L_0519"/>
    </vehicle>
    <vehicle id="IN_08_b_2.20" type="truck" depart="3563.00" departLane="best">
        <route edges="L_0801 L_0102 L_0203 L_03041 L_0304 L_04051 L_04052 L_0519"/>
    </vehicle>
    <vehicle id="IN_18_b_2.35" type="truck" depart="3579.00" departLane="best">
        <route edges="L_18051 L_1805 L_0519"/>
    </vehicle>
    <vehicle id="IN_08_b_2.21" type="truck" depart="3587.00" departLane="best">
        <route edges="L_0801 L_0102 L_0203 L_03041 L_0304 L_04051 L_04052 L_0520"/>
    </vehicle>
    <vehicle id="IN_08_b_2.22" type="truck" depart="3589.00" departLane="best">
        <route edges="L_0801 L_0102 L_0203 L_03041 L_0304 L_04051 L_04052 L_0519"/>
    </vehicle>
    <vehicle id="IN_19_b_3.0" type="truck" depart="3608.00" departLane="best">
        <route edges="L_1905 L_05041 L_0504 L_0403 L_0302 L_0201 L_0108"/>
    </vehicle>
    <vehicle id="IN_18_b_3.0" type="truck" depart="3645.00" departLane="best">
        <route edges="L_18051 L_1805 L_0519"/>
    </vehicle>
    <vehicle id="IN_14_b_3.0" type="truck" depart="3660.00" departLane="best">
        <route edges="L_14041 L_1404 L_0407 L_0716"/>
    </vehicle>
    <vehicle id="IN_16_b_3.0" type="truck" depart="3673.00" departLane="best">
        <route edges="L_1607 L_0704 L_0414"/>
    </vehicle>
    <vehicle id="IN_19_b_3.1" type="truck" depart="3673.00" departLane="best">
        <route edges="L_1905 L_0518"/>
    </vehicle>
    <vehicle id="IN_08_b_3.0" type="truck" depart="3675.00" departLane="best">